<?xml version="1.0" encoding="UTF-8"?>

<!-- generated on 2023-09-07 10:18:29 by Eclipse SUMO netedit Version 1.12.0
<configuration xmlns:xsi="http://www.w3.org/2001/XMLSchema-instance" xsi:noNamespaceSchemaLocation="http://sumo.dlr.de/xsd/netconvertConfiguration.xsd">

    <input>
        <sumo-net-file value="/home/demetere/Projects/mai/traffic-control/dataset/vake.net.xml"/>
    </input>

    <output>
        <output-file value="/home/demetere/Projects/mai/traffic-control/dataset/vake.net.xml"/>
    </output>

    <processing>
        <geometry.min-radius.fix.railways value="false"/>
        <geometry.max-grade.fix value="false"/>
        <offset.disable-normalization value="true"/>
        <lefthand value="false"/>
    </processing>

    <junctions>
        <no-turnarounds value="true"/>
        <junctions.corner-detail value="5"/>
        <junctions.limit-turn-speed value="5.5"/>
        <rectangular-lane-cut value="false"/>
    </junctions>

    <pedestrian>
        <walkingareas value="false"/>
    </pedestrian>

    <report>
        <aggregate-warnings value="5"/>
    </report>

</configuration>
-->

<net version="1.9" junctionCornerDetail="5" limitTurnSpeed="5.50" xmlns:xsi="http://www.w3.org/2001/XMLSchema-instance" xsi:noNamespaceSchemaLocation="http://sumo.dlr.de/xsd/net_file.xsd">

    <location netOffset="-478899.20,-4617159.97" convBoundary="456.48,111.88,2939.89,780.66" origBoundary="44.746341,41.700306,44.786171,41.716419" projParameter="+proj=utm +zone=38 +ellps=WGS84 +datum=WGS84 +units=m +no_defs"/>

    <type id="highway.bridleway" priority="1" numLanes="1" speed="2.78" allow="pedestrian" oneway="1" width="2.00"/>
    <type id="highway.bus_guideway" priority="1" numLanes="1" speed="27.78" allow="bus" oneway="1"/>
    <type id="highway.cycleway" priority="1" numLanes="1" speed="8.33" allow="bicycle" oneway="0" width="1.00"/>
    <type id="highway.footway" priority="1" numLanes="1" speed="2.78" allow="pedestrian" oneway="1" width="2.00"/>
    <type id="highway.ford" priority="1" numLanes="1" speed="2.78" allow="army" oneway="0"/>
    <type id="highway.living_street" priority="2" numLanes="1" speed="2.78" disallow="tram rail_urban rail rail_electric rail_fast ship" oneway="0"/>
    <type id="highway.motorway" priority="14" numLanes="2" speed="39.44" allow="private emergency authority army vip passenger hov taxi bus coach delivery truck trailer motorcycle evehicle custom1 custom2" oneway="1"/>
    <type id="highway.motorway_link" priority="9" numLanes="1" speed="22.22" allow="private emergency authority army vip passenger hov taxi bus coach delivery truck trailer motorcycle evehicle custom1 custom2" oneway="1"/>
    <type id="highway.path" priority="1" numLanes="1" speed="2.78" allow="pedestrian bicycle" oneway="0" width="2.00"/>
    <type id="highway.pedestrian" priority="1" numLanes="1" speed="2.78" allow="pedestrian" oneway="1" width="2.00"/>
    <type id="highway.primary" priority="12" numLanes="2" speed="27.78" disallow="tram rail_urban rail rail_electric rail_fast ship" oneway="0"/>
    <type id="highway.primary_link" priority="7" numLanes="1" speed="22.22" disallow="tram rail_urban rail rail_electric rail_fast ship" oneway="0"/>
    <type id="highway.raceway" priority="15" numLanes="2" speed="83.33" allow="vip" oneway="0"/>
    <type id="highway.residential" priority="3" numLanes="1" speed="13.89" disallow="tram rail_urban rail rail_electric rail_fast ship" oneway="0"/>
    <type id="highway.secondary" priority="11" numLanes="1" speed="27.78" disallow="tram rail_urban rail rail_electric rail_fast ship" oneway="0"/>
    <type id="highway.secondary_link" priority="6" numLanes="1" speed="22.22" disallow="tram rail_urban rail rail_electric rail_fast ship" oneway="0"/>
    <type id="highway.service" priority="1" numLanes="1" speed="5.56" allow="pedestrian delivery bicycle" oneway="0"/>
    <type id="highway.stairs" priority="1" numLanes="1" speed="1.39" allow="pedestrian" oneway="1" width="2.00"/>
    <type id="highway.step" priority="1" numLanes="1" speed="1.39" allow="pedestrian" oneway="1" width="2.00"/>
    <type id="highway.steps" priority="1" numLanes="1" speed="1.39" allow="pedestrian" oneway="1" width="2.00"/>
    <type id="highway.tertiary" priority="10" numLanes="1" speed="22.22" disallow="tram rail_urban rail rail_electric rail_fast ship" oneway="0"/>
    <type id="highway.tertiary_link" priority="5" numLanes="1" speed="22.22" disallow="tram rail_urban rail rail_electric rail_fast ship" oneway="0"/>
    <type id="highway.track" priority="1" numLanes="1" speed="5.56" allow="pedestrian motorcycle moped bicycle" oneway="0"/>
    <type id="highway.trunk" priority="13" numLanes="2" speed="27.78" disallow="pedestrian bicycle tram rail_urban rail rail_electric rail_fast ship" oneway="0"/>
    <type id="highway.trunk_link" priority="8" numLanes="1" speed="22.22" disallow="pedestrian bicycle tram rail_urban rail rail_electric rail_fast ship" oneway="0"/>
    <type id="highway.unclassified" priority="4" numLanes="1" speed="13.89" disallow="tram rail_urban rail rail_electric rail_fast ship" oneway="0"/>
    <type id="highway.unsurfaced" priority="1" numLanes="1" speed="8.33" disallow="tram rail_urban rail rail_electric rail_fast ship" oneway="0"/>
    <type id="railway.highspeed" priority="21" numLanes="1" speed="69.44" allow="rail_fast" oneway="1"/>
    <type id="railway.light_rail" priority="19" numLanes="1" speed="27.78" allow="rail_urban" oneway="1"/>
    <type id="railway.preserved" priority="16" numLanes="1" speed="27.78" allow="rail" oneway="1"/>
    <type id="railway.rail" priority="20" numLanes="1" speed="44.44" allow="rail" oneway="1"/>
    <type id="railway.subway" priority="18" numLanes="1" speed="27.78" allow="rail_urban" oneway="1"/>
    <type id="railway.tram" priority="17" numLanes="1" speed="13.89" allow="tram" oneway="1"/>

    <edge id=":1068809710_0" function="internal">
        <lane id=":1068809710_0_0" index="0" allow="bus" speed="11.11" length="16.52" shape="2382.99,349.87 2379.10,348.95 2374.95,347.94 2370.82,346.84 2367.01,345.66"/>
    </edge>
    <edge id=":1068809710_1" function="internal">
        <lane id=":1068809710_1_0" index="0" allow="passenger" speed="6.52" length="11.44" shape="2369.11,339.60 2372.95,340.53 2375.68,340.31 2377.32,338.92 2377.85,336.37"/>
    </edge>
    <edge id=":1068809710_2" function="internal">
        <lane id=":1068809710_2_0" index="0" allow="passenger" speed="11.11" length="16.06" shape="2369.11,339.60 2373.59,341.06 2376.71,341.90 2379.87,342.59 2384.47,343.63"/>
        <lane id=":1068809710_2_1" index="1" allow="passenger" speed="11.11" length="16.06" shape="2368.06,342.62 2372.63,344.12 2375.81,344.97 2379.04,345.68 2383.73,346.74"/>
    </edge>
    <edge id=":1428008174_0" function="internal">
        <lane id=":1428008174_0_0" index="0" allow="passenger" speed="7.43" length="12.83" shape="1217.79,529.80 1216.89,526.18 1215.16,523.81 1212.61,522.68 1209.24,522.80"/>
    </edge>
    <edge id=":1428008174_1" function="internal">
        <lane id=":1428008174_1_0" index="0" allow="passenger" speed="8.91" length="16.96" shape="1235.20,521.22 1229.03,522.72 1224.72,524.57 1222.27,526.78 1221.67,529.33"/>
    </edge>
    <edge id=":1428008174_2" function="internal">
        <lane id=":1428008174_2_0" index="0" allow="passenger" speed="11.11" length="26.15" shape="1234.83,518.04 1209.24,522.80"/>
        <lane id=":1428008174_2_1" index="1" allow="passenger" speed="11.11" length="26.15" shape="1234.45,514.86 1208.62,519.66"/>
    </edge>
    <edge id=":1428008174_4" function="internal">
        <lane id=":1428008174_4_0" index="0" allow="bus" speed="11.11" length="26.52" shape="1208.00,516.52 1234.07,511.68"/>
    </edge>
    <edge id=":2133700182_0" function="internal">
        <lane id=":2133700182_0_0" index="0" allow="passenger" speed="16.67" length="17.37" shape="627.26,635.23 623.70,635.46 620.08,635.32 615.79,635.22 610.28,635.59"/>
        <lane id=":2133700182_0_1" index="1" allow="passenger" speed="16.67" length="17.37" shape="627.26,635.23 623.69,634.96 620.00,633.72 615.60,632.53 609.90,632.41"/>
    </edge>
    <edge id=":2133700182_2" function="internal">
        <lane id=":2133700182_2_0" index="0" allow="bus" speed="16.67" length="17.44" shape="625.86,627.09 622.58,628.63 619.52,631.27 615.74,633.95 610.28,635.59"/>
        <lane id=":2133700182_2_1" index="1" allow="bus" speed="16.67" length="17.44" shape="625.86,627.09 622.46,628.14 619.16,629.70 615.23,631.29 609.90,632.41"/>
    </edge>
    <edge id=":2133700182_4" function="internal">
        <lane id=":2133700182_4_0" index="0" allow="passenger" speed="6.67" length="9.09" shape="609.09,625.85 611.40,625.24 613.00,623.99 613.92,622.09 614.14,619.53"/>
    </edge>
    <edge id=":2133700182_5" function="internal">
        <lane id=":2133700182_5_0" index="0" allow="passenger" speed="7.92" length="13.45" shape="609.09,625.85 613.74,625.02 617.02,623.65 618.91,621.75 619.43,619.31"/>
    </edge>
    <edge id=":2133700182_6" function="internal">
        <lane id=":2133700182_6_0" index="0" allow="passenger" speed="16.67" length="16.70" shape="609.46,629.03 614.74,627.99 618.65,626.51 621.93,625.02 625.32,624.00"/>
    </edge>
    <edge id=":2133700182_7" function="internal">
        <lane id=":2133700182_7_0" index="0" allow="bus" speed="16.67" length="17.66" shape="609.46,629.03 615.14,629.22 619.50,630.47 623.15,631.76 626.71,632.06"/>
    </edge>
    <edge id=":2455257603_0" function="internal">
        <lane id=":2455257603_0_0" index="0" allow="passenger" speed="7.10" length="7.15" shape="813.77,696.95 814.93,698.30 816.36,699.19 818.05,699.61 820.00,699.58"/>
    </edge>
    <edge id=":2455257603_1" function="internal">
        <lane id=":2455257603_1_0" index="0" allow="passenger" speed="7.19" length="6.71" shape="811.17,705.11 811.83,703.38 812.03,701.74 811.78,700.18 811.08,698.71"/>
    </edge>
    <edge id=":2455257603_2" function="internal">
        <lane id=":2455257603_2_0" index="0" allow="passenger" speed="8.14" length="8.76" shape="814.27,706.65 814.39,705.51 813.90,703.81 812.80,701.54 811.08,698.71"/>
    </edge>
    <edge id=":2455257603_3" function="internal">
        <lane id=":2455257603_3_0" index="0" allow="passenger" speed="7.88" length="7.57" shape="814.27,706.65 815.28,705.16 816.64,704.01 818.34,703.21 820.40,702.76"/>
    </edge>
    <edge id=":255124617_0" function="internal">
        <lane id=":255124617_0_0" index="0" allow="passenger" speed="22.22" length="13.76" shape="2684.39,248.50 2679.88,235.50"/>
    </edge>
    <edge id=":255124617_1" function="internal">
        <lane id=":255124617_1_0" index="0" allow="passenger" speed="22.22" length="13.70" shape="2683.14,234.40 2687.39,247.42"/>
    </edge>
    <edge id=":255124617_2" function="internal">
        <lane id=":255124617_2_0" index="0" allow="passenger" speed="6.63" length="2.79" shape="2683.14,234.40 2683.37,236.88 2683.22,237.14"/>
    </edge>
    <edge id=":255124617_3" function="internal">
        <lane id=":255124617_3_0" index="0" allow="passenger" speed="6.63" length="8.22" shape="2683.22,237.14 2682.32,238.75 2679.96,240.01 2676.32,240.67"/>
    </edge>
    <edge id=":255124618_0" function="internal">
        <lane id=":255124618_0_0" index="0" allow="passenger" speed="9.63" length="14.54" shape="764.46,625.16 761.61,621.08 758.86,618.27 756.21,616.74 753.66,616.47"/>
    </edge>
    <edge id=":255124618_1" function="internal">
        <lane id=":255124618_1_0" index="0" allow="passenger" speed="5.85" length="9.13" shape="770.56,616.82 768.02,617.61 766.67,618.96 766.51,620.86 767.55,623.31"/>
    </edge>
    <edge id=":255124618_2" function="internal">
        <lane id=":255124618_2_0" index="0" allow="passenger" speed="13.89" length="16.64" shape="770.06,613.66 753.66,616.47"/>
    </edge>
    <edge id=":255124618_3" function="internal">
        <lane id=":255124618_3_0" index="0" allow="bus" speed="13.89" length="16.61" shape="753.20,613.38 769.54,610.38"/>
    </edge>
    <edge id=":255124647_0" function="internal">
        <lane id=":255124647_0_0" index="0" allow="passenger" speed="6.88" length="10.33" shape="1273.42,357.39 1272.64,354.94 1271.08,353.35 1268.76,352.61 1265.66,352.72"/>
    </edge>
    <edge id=":255124647_1" function="internal">
        <lane id=":255124647_1_0" index="0" allow="passenger" speed="16.67" length="11.46" shape="1273.42,357.39 1272.77,354.37 1271.95,352.14 1271.11,349.77 1270.42,346.35"/>
    </edge>
    <edge id=":255124647_2" function="internal">
        <lane id=":255124647_2_0" index="0" allow="passenger" speed="6.51" length="9.03" shape="1281.38,350.63 1279.00,351.32 1277.41,352.60 1276.61,354.48 1276.60,356.95"/>
    </edge>
    <edge id=":255124647_3" function="internal">
        <lane id=":255124647_3_0" index="0" allow="passenger" speed="22.22" length="15.86" shape="1281.38,350.63 1265.66,352.72"/>
    </edge>
    <edge id=":255124647_4" function="internal">
        <lane id=":255124647_4_0" index="0" allow="passenger" speed="7.71" length="13.12" shape="1281.38,350.63 1276.87,350.90 1273.54,350.27 1271.39,348.76 1270.42,346.35"/>
        <lane id=":255124647_4_1" index="1" allow="passenger" speed="6.91" length="10.35" shape="1281.38,350.63 1278.26,350.71 1275.92,349.94 1274.37,348.35 1273.59,345.92"/>
    </edge>
    <edge id=":255124648_0" function="internal">
        <lane id=":255124648_0_0" index="0" allow="passenger" speed="7.40" length="11.44" shape="747.06,432.82 744.11,433.76 742.11,435.43 741.06,437.82 740.96,440.94"/>
    </edge>
    <edge id=":255124648_1" function="internal">
        <lane id=":255124648_1_0" index="0" allow="passenger" speed="22.22" length="14.41" shape="747.06,432.82 732.77,434.66"/>
    </edge>
    <edge id=":255124671_0" function="internal">
        <lane id=":255124671_0_0" index="0" allow="passenger" speed="7.20" length="9.80" shape="2375.81,237.04 2375.36,234.64 2374.16,232.80 2372.19,231.51 2369.47,230.78"/>
    </edge>
    <edge id=":255124671_1" function="internal">
        <lane id=":255124671_1_0" index="0" allow="passenger" speed="13.89" length="10.98" shape="2375.81,237.04 2376.13,233.97 2376.97,231.73 2377.85,229.48 2378.29,226.42"/>
    </edge>
    <edge id=":255124671_2" function="internal">
        <lane id=":255124671_2_0" index="0" allow="passenger" speed="18.05" length="13.58" shape="2382.88,232.92 2369.47,230.78"/>
    </edge>
    <edge id=":255124671_3" function="internal">
        <lane id=":255124671_3_0" index="0" allow="passenger" speed="6.77" length="8.79" shape="2382.88,232.92 2380.83,232.22 2379.39,230.91 2378.54,228.98 2378.29,226.42"/>
    </edge>
    <edge id=":255124671_4" function="internal">
        <lane id=":255124671_4_0" index="0" allow="passenger" speed="5.92" length="8.00" shape="2374.69,226.42 2374.33,228.61 2373.34,230.07 2371.72,230.79 2369.47,230.78"/>
    </edge>
    <edge id=":255124674_0" function="internal">
        <lane id=":255124674_0_0" index="0" allow="passenger" speed="22.22" length="15.79" shape="1983.30,256.76 1978.24,257.27 1974.37,257.75 1971.10,258.43 1967.83,259.56"/>
    </edge>
    <edge id=":255124674_1" function="internal">
        <lane id=":255124674_1_0" index="0" allow="passenger" speed="22.22" length="17.13" shape="1982.98,253.58 1965.88,254.50"/>
    </edge>
    <edge id=":255124674_2" function="internal">
        <lane id=":255124674_2_0" index="0" allow="passenger" speed="7.57" length="12.43" shape="1982.98,253.58 1979.10,253.57 1976.22,252.64 1974.34,250.80 1973.46,248.04"/>
        <lane id=":255124674_2_1" index="1" allow="passenger" speed="6.80" length="9.84" shape="1982.98,253.58 1980.49,253.42 1978.61,252.39 1977.33,250.46 1976.64,247.66"/>
    </edge>
    <edge id=":255124688_0" function="internal">
        <lane id=":255124688_0_0" index="0" allow="bus" speed="11.11" length="12.75" shape="2615.53,375.27 2612.23,376.06 2609.30,376.55 2606.33,376.86 2602.94,377.10"/>
    </edge>
    <edge id=":255124688_1" function="internal">
        <lane id=":255124688_1_0" index="0" allow="passenger" speed="6.12" length="9.10" shape="2607.75,364.78 2608.27,367.31 2609.47,368.89 2611.34,369.53 2613.88,369.22"/>
    </edge>
    <edge id=":255124688_2" function="internal">
        <lane id=":255124688_2_0" index="0" allow="passenger" speed="11.11" length="11.80" shape="2602.54,370.74 2605.94,370.55 2608.28,370.40 2610.58,370.04 2613.88,369.22"/>
        <lane id=":255124688_2_1" index="1" allow="passenger" speed="11.11" length="11.80" shape="2602.76,373.93 2606.35,373.73 2608.82,373.56 2611.24,373.17 2614.72,372.30"/>
    </edge>
    <edge id=":255124729_0" function="internal">
        <lane id=":255124729_0_0" index="0" allow="passenger" speed="16.67" length="14.34" shape="1231.84,613.56 1232.28,616.88 1232.66,619.88 1232.90,623.29 1232.91,627.84"/>
    </edge>
    <edge id=":255124729_1" function="internal">
        <lane id=":255124729_1_0" index="0" allow="passenger" speed="6.58" length="8.57" shape="1223.10,620.27 1225.24,619.48 1226.68,618.17 1227.42,616.33 1227.47,613.97"/>
    </edge>
    <edge id=":255124729_2" function="internal">
        <lane id=":255124729_2_0" index="0" allow="passenger" speed="6.90" length="12.11" shape="1223.76,623.40 1227.82,622.94 1230.70,623.52 1232.39,625.16 1232.91,627.84"/>
        <lane id=":255124729_2_1" index="1" allow="passenger" speed="6.02" length="8.94" shape="1223.76,623.40 1226.41,623.19 1228.29,623.85 1229.39,625.37 1229.71,627.77"/>
    </edge>
    <edge id=":255124808_0" function="internal">
        <lane id=":255124808_0_0" index="0" allow="passenger" speed="8.08" length="14.67" shape="997.66,677.71 997.37,673.80 998.46,670.72 1000.96,668.49 1004.85,667.10"/>
    </edge>
    <edge id=":255124808_1" function="internal">
        <lane id=":255124808_1_0" index="0" allow="passenger" speed="6.46" length="9.03" shape="1001.26,676.88 1001.05,674.41 1001.69,672.48 1003.17,671.08 1005.50,670.23"/>
    </edge>
    <edge id=":255124808_2" function="internal">
        <lane id=":255124808_2_0" index="0" allow="passenger" speed="16.67" length="14.93" shape="990.24,670.33 1004.85,667.10"/>
        <lane id=":255124808_2_1" index="1" allow="passenger" speed="16.67" length="14.93" shape="990.95,673.46 1005.50,670.23"/>
    </edge>
    <edge id=":255124811_0" function="internal">
        <lane id=":255124811_0_0" index="0" allow="passenger" speed="6.53" length="9.19" shape="747.64,502.62 748.26,505.02 749.54,506.64 751.45,507.46 754.01,507.50"/>
    </edge>
    <edge id=":255124811_1" function="internal">
        <lane id=":255124811_1_0" index="0" allow="passenger" speed="7.46" length="12.34" shape="747.64,502.62 748.44,506.64 749.85,509.41 751.86,510.92 754.47,511.19"/>
    </edge>
    <edge id=":255124811_2" function="internal">
        <lane id=":255124811_2_0" index="0" allow="passenger" speed="13.89" length="12.65" shape="741.47,509.14 754.01,507.50"/>
    </edge>
    <edge id=":255124811_3" function="internal">
        <lane id=":255124811_3_0" index="0" allow="passenger" speed="13.89" length="12.63" shape="742.00,513.20 754.47,511.19"/>
    </edge>
    <edge id=":255125004_0" function="internal">
        <lane id=":255125004_0_0" index="0" allow="passenger" speed="4.17" length="14.01" shape="1047.56,460.98 1049.98,474.71"/>
        <lane id=":255125004_0_1" index="1" allow="passenger" speed="4.17" length="14.01" shape="1044.40,461.48 1046.84,475.35"/>
    </edge>
    <edge id=":255125004_2" function="internal">
        <lane id=":255125004_2_0" index="0" allow="passenger" speed="7.87" length="13.14" shape="1037.82,467.94 1041.13,467.99 1043.73,469.25 1045.64,471.70 1046.84,475.35"/>
    </edge>
    <edge id=":255125004_3" function="internal">
        <lane id=":255125004_3_0" index="0" allow="passenger" speed="7.12" length="10.58" shape="1038.32,471.25 1041.65,471.08 1044.19,471.71 1045.91,473.13 1046.84,475.35"/>
    </edge>
    <edge id=":255125007_0" function="internal">
        <lane id=":255125007_0_0" index="0" allow="passenger" speed="6.22" length="9.04" shape="2128.69,352.70 2128.08,350.25 2126.83,348.70 2124.95,348.05 2122.43,348.31"/>
    </edge>
    <edge id=":255125007_1" function="internal">
        <lane id=":255125007_1_0" index="0" allow="passenger" speed="7.24" length="10.20" shape="2136.48,344.29 2134.24,345.29 2132.74,346.97 2131.99,349.32 2131.98,352.35"/>
    </edge>
    <edge id=":255125007_2" function="internal">
        <lane id=":255125007_2_0" index="0" allow="passenger" speed="11.11" length="14.61" shape="2136.48,344.29 2122.43,348.31"/>
        <lane id=":255125007_2_1" index="1" allow="passenger" speed="11.11" length="14.61" shape="2135.70,341.19 2121.66,345.20"/>
    </edge>
    <edge id=":255125007_4" function="internal">
        <lane id=":255125007_4_0" index="0" allow="bus" speed="11.11" length="14.60" shape="2120.89,342.14 2134.90,338.02"/>
    </edge>
    <edge id=":255125480_0" function="internal">
        <lane id=":255125480_0_0" index="0" allow="passenger" speed="6.73" length="9.60" shape="1042.17,388.13 1039.85,388.91 1038.32,390.35 1037.58,392.48 1037.64,395.27"/>
        <lane id=":255125480_0_1" index="1" allow="passenger" speed="7.51" length="12.20" shape="1042.17,388.13 1038.47,389.13 1035.95,390.72 1034.62,392.92 1034.47,395.72"/>
    </edge>
    <edge id=":255125480_2" function="internal">
        <lane id=":255125480_2_0" index="0" allow="passenger" speed="22.22" length="14.84" shape="1042.17,388.13 1027.62,391.00"/>
    </edge>
    <edge id=":255125480_3" function="internal">
        <lane id=":255125480_3_0" index="0" allow="passenger" speed="10.42" length="11.92" shape="1035.46,383.57 1037.64,395.27"/>
        <lane id=":255125480_3_1" index="1" allow="passenger" speed="10.42" length="11.92" shape="1032.29,383.99 1034.47,395.72"/>
    </edge>
    <edge id=":255125480_5" function="internal">
        <lane id=":255125480_5_0" index="0" allow="passenger" speed="6.66" length="9.63" shape="1032.29,383.99 1032.31,386.82 1031.54,388.93 1029.98,390.32 1027.62,391.00"/>
    </edge>
    <edge id=":255125487_0" function="internal">
        <lane id=":255125487_0_0" index="0" allow="passenger" speed="6.63" length="10.44" shape="2205.45,211.69 2202.93,211.97 2201.20,213.25 2200.27,215.53 2200.13,218.82"/>
    </edge>
    <edge id=":255125487_1" function="internal">
        <lane id=":255125487_1_0" index="0" allow="passenger" speed="22.22" length="15.54" shape="2205.45,211.69 2202.03,211.76 2198.81,212.39 2195.10,213.35 2190.20,214.41"/>
    </edge>
    <edge id=":255125487_2" function="internal">
        <lane id=":255125487_2_0" index="0" allow="passenger" speed="7.43" length="10.91" shape="2205.45,211.69 2202.55,211.07 2200.43,209.70 2199.09,207.58 2198.53,204.72"/>
    </edge>
    <edge id=":255125487_3" function="internal">
        <lane id=":255125487_3_0" index="0" allow="passenger" speed="13.89" length="14.33" shape="2194.70,204.90 2195.08,208.21 2195.72,211.17 2196.42,214.52 2196.94,219.04"/>
    </edge>
    <edge id=":255125487_4" function="internal">
        <lane id=":255125487_4_0" index="0" allow="passenger" speed="6.82" length="9.02" shape="2194.70,204.90 2194.48,207.32 2193.56,209.19 2191.94,210.50 2189.63,211.26"/>
    </edge>
    <edge id=":255125534_0" function="internal">
        <lane id=":255125534_0_0" index="0" allow="passenger" speed="7.23" length="11.21" shape="2608.64,246.23 2605.07,246.86 2602.58,248.10 2601.14,249.94 2600.78,252.38"/>
    </edge>
    <edge id=":255125534_1" function="internal">
        <lane id=":255125534_1_0" index="0" allow="passenger" speed="13.89" length="14.89" shape="2608.64,246.23 2593.77,247.02"/>
    </edge>
    <edge id=":255125534_2" function="internal">
        <lane id=":255125534_2_0" index="0" allow="passenger" speed="7.51" length="12.36" shape="2608.64,246.23 2604.55,246.19 2601.55,245.34 2599.66,243.66 2598.87,241.16"/>
    </edge>
    <edge id=":255125534_3" function="internal">
        <lane id=":255125534_3_0" index="0" allow="passenger" speed="13.89" length="11.73" shape="2602.55,240.86 2602.46,244.05 2601.75,246.61 2601.00,249.17 2600.78,252.38"/>
    </edge>
    <edge id=":255125534_4" function="internal">
        <lane id=":255125534_4_0" index="0" allow="passenger" speed="7.31" length="2.30" shape="2602.55,240.86 2602.26,243.14"/>
    </edge>
    <edge id=":255125534_5" function="internal">
        <lane id=":255125534_5_0" index="0" allow="passenger" speed="7.31" length="9.84" shape="2602.26,243.14 2602.23,243.36 2600.66,245.22 2597.84,246.44 2593.77,247.02"/>
    </edge>
    <edge id=":255125578_0" function="internal">
        <lane id=":255125578_0_0" index="0" allow="passenger" speed="13.89" length="11.77" shape="1525.13,310.97 1525.63,322.73"/>
    </edge>
    <edge id=":255125578_1" function="internal">
        <lane id=":255125578_1_0" index="0" allow="passenger" speed="6.67" length="9.49" shape="1521.95,311.37 1521.94,314.09 1521.14,316.15 1519.56,317.52 1517.19,318.22"/>
    </edge>
    <edge id=":255125581_0" function="internal">
        <lane id=":255125581_0_0" index="0" allow="passenger" speed="6.40" length="9.06" shape="1352.85,505.55 1352.21,503.13 1350.95,501.54 1349.07,500.78 1346.58,500.84"/>
        <lane id=":255125581_0_1" index="1" allow="passenger" speed="7.23" length="11.84" shape="1352.85,505.55 1352.03,501.74 1350.63,499.16 1348.63,497.81 1346.04,497.69"/>
        <lane id=":255125581_0_2" index="2" allow="passenger" speed="8.00" length="14.77" shape="1352.85,505.55 1351.86,500.35 1350.30,496.78 1348.18,494.84 1345.50,494.53"/>
    </edge>
    <edge id=":255125581_3" function="internal">
        <lane id=":255125581_3_0" index="0" allow="passenger" speed="6.88" length="9.73" shape="1362.00,497.89 1359.66,498.69 1358.09,500.15 1357.27,502.29 1357.21,505.10"/>
    </edge>
    <edge id=":255125581_4" function="internal">
        <lane id=":255125581_4_0" index="0" allow="passenger" speed="11.11" length="15.75" shape="1361.49,494.74 1346.04,497.69"/>
        <lane id=":255125581_4_1" index="1" allow="passenger" speed="11.11" length="15.75" shape="1360.98,491.58 1345.50,494.53"/>
    </edge>
    <edge id=":255125581_6" function="internal">
        <lane id=":255125581_6_0" index="0" allow="bus" speed="11.11" length="15.80" shape="1344.95,491.35 1360.45,488.24"/>
    </edge>
    <edge id=":255125642_0" function="internal">
        <lane id=":255125642_0_0" index="0" allow="passenger" speed="22.22" length="15.21" shape="1748.04,288.07 1732.93,289.82"/>
    </edge>
    <edge id=":255125642_1" function="internal">
        <lane id=":255125642_1_0" index="0" allow="passenger" speed="16.67" length="11.74" shape="1740.76,282.94 1743.33,294.41"/>
        <lane id=":255125642_1_1" index="1" allow="passenger" speed="16.67" length="11.74" shape="1737.60,283.45 1740.16,294.89"/>
    </edge>
    <edge id=":255125642_3" function="internal">
        <lane id=":255125642_3_0" index="0" allow="passenger" speed="6.48" length="9.03" shape="1737.60,283.45 1737.64,285.92 1736.87,287.81 1735.30,289.11 1732.93,289.82"/>
    </edge>
    <edge id=":255125780_0" function="internal">
        <lane id=":255125780_0_0" index="0" allow="bus" speed="11.11" length="17.56" shape="2560.91,379.19 2543.40,377.92"/>
    </edge>
    <edge id=":255125780_1" function="internal">
        <lane id=":255125780_1_0" index="0" allow="passenger" speed="6.84" length="10.90" shape="2543.56,371.16 2547.05,370.78 2549.45,369.69 2550.76,367.89 2550.99,365.37"/>
        <lane id=":255125780_1_1" index="1" allow="passenger" speed="7.64" length="13.90" shape="2543.56,371.16 2548.46,370.75 2551.86,369.59 2553.76,367.68 2554.17,365.01"/>
    </edge>
    <edge id=":255125780_3" function="internal">
        <lane id=":255125780_3_0" index="0" allow="passenger" speed="11.11" length="17.49" shape="2543.56,371.16 2548.72,371.41 2552.23,372.01 2555.74,372.61 2560.90,372.88"/>
        <lane id=":255125780_3_1" index="1" allow="passenger" speed="11.11" length="17.49" shape="2543.49,374.37 2548.67,374.61 2552.20,375.21 2555.72,375.81 2560.91,376.08"/>
    </edge>
    <edge id=":255125806_0" function="internal">
        <lane id=":255125806_0_0" index="0" allow="passenger" speed="7.11" length="10.12" shape="2538.78,256.72 2538.10,254.06 2536.74,252.17 2534.71,251.05 2532.00,250.70"/>
    </edge>
    <edge id=":255125806_1" function="internal">
        <lane id=":255125806_1_0" index="0" allow="passenger" speed="13.89" length="11.75" shape="2538.78,256.72 2536.88,245.07"/>
        <lane id=":255125806_1_1" index="1" allow="passenger" speed="13.89" length="11.75" shape="2541.96,256.36 2540.07,244.81"/>
    </edge>
    <edge id=":255125806_3" function="internal">
        <lane id=":255125806_3_0" index="0" allow="passenger" speed="13.89" length="14.57" shape="2546.53,249.63 2532.00,250.70"/>
    </edge>
    <edge id=":255125806_4" function="internal">
        <lane id=":255125806_4_0" index="0" allow="passenger" speed="7.43" length="11.83" shape="2546.53,249.63 2542.46,249.53 2539.50,248.74 2537.64,247.26 2536.88,245.07"/>
        <lane id=":255125806_4_1" index="1" allow="passenger" speed="6.60" length="9.12" shape="2546.53,249.63 2543.86,249.45 2541.89,248.59 2540.63,247.04 2540.07,244.81"/>
    </edge>
    <edge id=":255126430_0" function="internal">
        <lane id=":255126430_0_0" index="0" allow="passenger" speed="13.89" length="17.46" shape="2142.25,439.93 2140.14,436.37 2138.21,432.19 2136.70,427.84 2135.89,423.81"/>
    </edge>
    <edge id=":255126430_1" function="internal">
        <lane id=":255126430_1_0" index="0" allow="passenger" speed="7.55" length="6.44" shape="2142.25,439.93 2139.93,435.30 2139.97,434.04"/>
    </edge>
    <edge id=":255126430_6" function="internal">
        <lane id=":255126430_6_0" index="0" allow="passenger" speed="7.55" length="10.78" shape="2139.97,434.04 2140.04,431.81 2142.56,429.45 2147.51,428.23"/>
    </edge>
    <edge id=":255126430_2" function="internal">