<?xml version="1.0" encoding="UTF-8"?>

<!-- generated on 2023-09-06 14:03:44 by Eclipse SUMO duarouter Version 1.12.0
<configuration xmlns:xsi="http://www.w3.org/2001/XMLSchema-instance" xsi:noNamespaceSchemaLocation="http://sumo.dlr.de/xsd/duarouterConfiguration.xsd">

    <input>
        <net-file value="vake.net.xml"/>
        <route-files value="vake.bus.trips.xml"/>
    </input>

    <output>
        <output-file value="vake.bus.rou.xml"/>
        <alternatives-output value="vake.bus.rou.alt.xml"/>
    </output>

    <report>
        <ignore-errors value="true"/>
    </report>

</configuration>
-->

<routes xmlns:xsi="http://www.w3.org/2001/XMLSchema-instance" xsi:noNamespaceSchemaLocation="http://sumo.dlr.de/xsd/routes_file.xsd">
    <vType id="bus" vClass="bus"/>
    <vehicle id="9999991" type="bus" depart="15.00">
        <route edges="414217743#0 194900180 -159464054 -542757032#1 -557086948#4 -557086948#3 -557086948#2 -692973062 -235826551#3 -423199936#1 -665006537 -735188027#2 -723085255#5  1144085347"/>
        <stop busStop="bs_1" duration="15"/>
        <stop busStop="bs_2" duration="15"/>
        <stop busStop="bs_4" duration="15"/>
        <stop busStop="bs_7" duration="15"/>
        <stop busStop="bs_9" duration="15"/>
    </vehicle>
    <vehicle id="9999993" type="bus" depart="45.00">
        <route edges="623938941 194900180 -159464054 -542757032#1 -557086948#4 -557086948#3 -557086948#2 -692973062 -235826551#3 -423199936#1 -665006537 -735188027#2 -723085255#5  1144085347"/>
        <stop busStop="bs_1" duration="15"/>
        <stop busStop="bs_2" duration="15"/>
        <stop busStop="bs_4" duration="15"/>
        <stop busStop="bs_7" duration="15"/>
        <stop busStop="bs_9" duration="15"/>
    </vehicle>
    <vehicle id="9999994" type="bus" depart="60.00">
        <route edges="414217743#0 194900180 -159464054 -542757032#1 -557086948#4 -557086948#3 -557086948#2 -692973062 -235826551#3 -423199936#1 -665006537 -735188027#2 -723085255#5  1144085347"/>
        <stop busStop="bs_1" duration="15"/>
        <stop busStop="bs_2" duration="15"/>
        <stop busStop="bs_4" duration="15"/>
        <stop busStop="bs_7" duration="15"/>
        <stop busStop="bs_9" duration="15"/>
    </vehicle>
    <vehicle id="9999996" type="bus" depart="90.00">
        <route edges="-142777087 -542757032#1 -557086948#4 -557086948#3 -557086948#2 -692973062 -235826551#3 -423199936#1 -665006537 -735188027#2 -723085255#5  1144085347"/>
        <stop busStop="bs_1" duration="15"/>
        <stop busStop="bs_2" duration="15"/>
        <stop busStop="bs_4" duration="15"/>
        <stop busStop="bs_7" duration="15"/>
        <stop busStop="bs_9" duration="15"/>
    </vehicle>
    <vehicle id="9999997" type="bus" depart="105.00">
        <route edges="423199309#0 -723085254 -753866466#5 -542807707 -707457972#2 -936543450 -693467519#3 -693467519#1 -557086935#4 -1125594742 -525704074#5 -525704074#0  142777087"/>
        <stop busStop="bs_8" duration="15"/>
        <stop busStop="bs_6" duration="15"/>
        <stop busStop="bs_5" duration="15"/>
        <stop busStop="bs_3" duration="15"/>
        <stop busStop="bs_0" duration="15"/>
    </vehicle>
    <vehicle id="9999999" type="bus" depart="135.00">
        <route edges="623938941 194900180 -159464054 -542757032#1 -557086948#4 -557086948#3 -557086948#2 -692973062 -235826551#3 -423199936#1 -665006537 -735188027#2 -723085255#5  1144085347"/>
        <stop busStop="bs_1" duration="15"/>
        <stop busStop="bs_2" duration="15"/>
        <stop busStop="bs_4" duration="15"/>
        <stop busStop="bs_7" duration="15"/>
        <stop busStop="bs_9" duration="15"/>
    </vehicle>
    <vehicle id="99999911" type="bus" depart="165.00">
        <route edges="414217743#0 194900180 -159464054 -542757032#1 -557086948#4 -557086948#3 -557086948#2 -692973062 -235826551#3 -423199936#1 -665006537 -735188027#2 -723085255#5  1144085347"/>
        <stop busStop="bs_1" duration="15"/>
        <stop busStop="bs_2" duration="15"/>
        <stop busStop="bs_4" duration="15"/>
        <stop busStop="bs_7" duration="15"/>
        <stop busStop="bs_9" duration="15"/>
    </vehicle>
    <vehicle id="99999912" type="bus" depart="180.00">
        <route edges="623938941 194900180 1594640540 142777087"/>
    </vehicle>
    <vehicle id="99999913" type="bus" depart="195.00">
        <route edges="-142777087 -542757032#1 -557086948#4 -557086948#3 -557086948#2 -692973062 -235826551#3 -423199936#1 -665006537 -735188027#2 -723085255#5  1144085347"/>
        <stop busStop="bs_1" duration="15"/>
        <stop busStop="bs_2" duration="15"/>
        <stop busStop="bs_4" duration="15"/>
        <stop busStop="bs_7" duration="15"/>
        <stop busStop="bs_9" duration="15"/>
    </vehicle>
    <vehicle id="99999914" type="bus" depart="210.00">
        <route edges="623938941 194900180 1594640540 142777087"/>
    </vehicle>
    <vehicle id="99999917" type="bus" depart="255.00">
        <route edges="414217743#0 194900180 1594640540 142777087"/>
    </vehicle>
    <vehicle id="99999918" type="bus" depart="270.00">
        <route edges="623938941 194900180 1594640540 142777087"/>
    </vehicle>
    <vehicle id="99999919" type="bus" depart="285.00">
        <route edges="623938941 194900180 1594640540 142777087"/>
    </vehicle>
    <vehicle id="99999921" type="bus" depart="315.00">
        <route edges="-142777087 -542757032#1 -557086948#4 -557086948#3 -557086948#2 -692973062 -235826551#3 -423199936#1 -665006537 -735188027#2 -723085255#5  1144085347"/>
        <stop busStop="bs_1" duration="15"/>
        <stop busStop="bs_2" duration="15"/>
        <stop busStop="bs_4" duration="15"/>
        <stop busStop="bs_7" duration="15"/>
        <stop busStop="bs_9" duration="15"/>
    </vehicle>
    <vehicle id="99999922" type="bus" depart="330.00">
        <route edges="-142777087 -542757032#1 -557086948#4 -557086948#3 -557086948#2 -692973062 -235826551#3 -423199936#1 -665006537 -735188027#2 -723085255#5  1144085347"/>
        <stop busStop="bs_1" duration="15"/>
        <stop busStop="bs_2" duration="15"/>
        <stop busStop="bs_4" duration="15"/>
        <stop busStop="bs_7" duration="15"/>
        <stop busStop="bs_9" duration="15"/>
    </vehicle>
    <vehicle id="99999923" type="bus" depart="345.00">
        <route edges="-142777087 -542757032#1 -557086948#4 -557086948#3 -557086948#2 -692973062 -235826551#3 -423199936#1 -665006537 -735188027#2 -723085255#5  1144085347"/>
        <stop busStop="bs_1" duration="15"/>
        <stop busStop="bs_2" duration="15"/>
        <stop busStop="bs_4" duration="15"/>
        <stop busStop="bs_7" duration="15"/>
        <stop busStop="bs_9" duration="15"/>
    </vehicle>
    <vehicle id="99999924" type="bus" depart="360.00">
        <route edges="423199309#0 -723085254 -753866466#5 -542807707 -707457972#2 -936543450 -693467519#3 -693467519#1 -557086935#4 -1125594742 -525704074#5 -525704074#0  142777087"/>
        <stop busStop="bs_8" duration="15"/>
        <stop busStop="bs_6" duration="15"/>
        <stop busStop="bs_5" duration="15"/>
        <stop busStop="bs_3" duration="15"/>
        <stop busStop="bs_0" duration="15"/>
    </vehicle>
    <vehicle id="99999925" type="bus" depart="375.00">
        <route edges="414217743#0 194900180 -159464054 -542757032#1 -557086948#4 -557086948#3 -557086948#2 -692973062 -235826551#3 -423199936#1 -665006537 -735188027#2 -723085255#5  1144085347"/>
        <stop busStop="bs_1" duration="15"/>
        <stop busStop="bs_2" duration="15"/>
        <stop busStop="bs_4" duration="15"/>
        <stop busStop="bs_7" duration="15"/>
        <stop busStop="bs_9" duration="15"/>
    </vehicle>
    <vehicle id="99999927" type="bus" depart="405.00">
        <route edges="423199309#0 -723085254 -753866466#5 -542807707 -707457972#2 -936543450 -693467519#3 -693467519#1 -557086935#4 -1125594742 -525704074#5 -525704074#0  142777087"/>
        <stop busStop="bs_8" duration="15"/>
        <stop busStop="bs_6" duration="15"/>
        <stop busStop="bs_5" duration="15"/>
        <stop busStop="bs_3" duration="15"/>
        <stop busStop="bs_0" duration="15"/>
    </vehicle>
    <vehicle id="99999930" type="bus" depart="450.00">
        <route edges="623938941 194900180 1594640540 142777087"/>
    </vehicle>
    <vehicle id="99999933" type="bus" depart="495.00">
        <route edges="-142777087 -542757032#1 -557086948#4 -557086948#3 -557086948#2 -692973062 -235826551#3 -423199936#1 -665006537 -735188027#2 -723085255#5  1144085347"/>
        <stop busStop="bs_1" duration="15"/>
        <stop busStop="bs_2" duration="15"/>
        <stop busStop="bs_4" duration="15"/>
        <stop busStop="bs_7" duration="15"/>
        <stop busStop="bs_9" duration="15"/>
    </vehicle>
    <vehicle id="99999934" type="bus" depart="510.00">
        <route edges="414217743#0 194900180 -159464054 -542757032#1 -557086948#4 -557086948#3 -557086948#2 -692973062 -235826551#3 -423199936#1 -665006537 -735188027#2 -723085255#5  1144085347"/>
        <stop busStop="bs_1" duration="15"/>
        <stop busStop="bs_2" duration="15"/>
        <stop busStop="bs_4" duration="15"/>
        <stop busStop="bs_7" duration="15"/>
        <stop busStop="bs_9" duration="15"/>
    </vehicle>
    <vehicle id="99999936" type="bus" depart="540.00">
        <route edges="623938941 194900180 -159464054 -542757032#1 -557086948#4 -557086948#3 -557086948#2 -692973062 -235826551#3 -423199936#1 -665006537 -735188027#2 -723085255#5  1144085347"/>
        <stop busStop="bs_1" duration="15"/>
        <stop busStop="bs_2" duration="15"/>
        <stop busStop="bs_4" duration="15"/>
        <stop busStop="bs_7" duration="15"/>
        <stop busStop="bs_9" duration="15"/>
    </vehicle>
    <vehicle id="99999937" type="bus" depart="555.00">
        <route edges="423199309#0 -723085254 -753866466#5 -542807707 -707457972#2 -936543450 -693467519#3 -693467519#1 -557086935#4 -1125594742 -525704074#5 -525704074#0  142777087"/>
        <stop busStop="bs_8" duration="15"/>
        <stop busStop="bs_6" duration="15"/>
        <stop busStop="bs_5" duration="15"/>
        <stop busStop="bs_3" duration="15"/>
        <stop busStop="bs_0" duration="15"/>
    </vehicle>
    <vehicle id="99999938" type="bus" depart="570.00">
        <route edges="623938941 194900180 1594640540 142777087"/>
    </vehicle>
    <vehicle id="99999939" type="bus" depart="585.00">
        <route edges="414217743#0 194900180 -159464054 -542757032#1 -557086948#4 -557086948#3 -557086948#2 -692973062 -235826551#3 -423199936#1 -665006537 -735188027#2 -723085255#5  1144085347"/>
        <stop busStop="bs_1" duration="15"/>
        <stop busStop="bs_2" duration="15"/>
        <stop busStop="bs_4" duration="15"/>
        <stop busStop="bs_7" duration="15"/>
        <stop busStop="bs_9" duration="15"/>
    </vehicle>
    <vehicle id="99999942" type="bus" depart="630.00">
        <route edges="414217743#0 194900180 -159464054 -542757032#1 -557086948#4 -557086948#3 -557086948#2 -692973062 -235826551#3 -423199936#1 -665006537 -735188027#2 -723085255#5  1144085347"/>
        <stop busStop="bs_1" duration="15"/>
        <stop busStop="bs_2" duration="15"/>
        <stop busStop="bs_4" duration="15"/>
        <stop busStop="bs_7" duration="15"/>
        <stop busStop="bs_9" duration="15"/>
    </vehicle>
    <vehicle id="99999943" type="bus" depart="645.00">
        <route edges="623938941 194900180 1594640540 142777087"/>
    </vehicle>
    <vehicle id="99999944" type="bus" depart="660.00">
        <route edges="-142777087 -542757032#1 -557086948#4 -557086948#3 -557086948#2 -692973062 -235826551#3 -423199936#1 -665006537 -735188027#2 -723085255#5  1144085347"/>
        <stop busStop="bs_1" duration="15"/>
        <stop busStop="bs_2" duration="15"/>
        <stop busStop="bs_4" duration="15"/>
        <stop busStop="bs_7" duration="15"/>
        <stop busStop="bs_9" duration="15"/>
    </vehicle>
    <vehicle id="99999946" type="bus" depart="690.00">
        <route edges="623938941 194900180 1594640540 142777087"/>
    </vehicle>
    <vehicle id="99999948" type="bus" depart="720.00">
        <route edges="623938941 194900180 1594640540 142777087"/>
    </vehicle>
    <vehicle id="99999951" type="bus" depart="765.00">
        <route edges="423199309#0 -723085254 -753866466#5 -542807707 -707457972#2 -936543450 -693467519#3 -693467519#1 -557086935#4 -1125594742 -525704074#5 -525704074#0  142777087"/>
        <stop busStop="bs_8" duration="15"/>
        <stop busStop="bs_6" duration="15"/>
        <stop busStop="bs_5" duration="15"/>
        <stop busStop="bs_3" duration="15"/>
        <stop busStop="bs_0" duration="15"/>
    </vehicle>
    <vehicle id="99999952" type="bus" depart="780.00">
        <route edges="414217743#0 194900180 1594640540 142777087"/>
    </vehicle>
    <vehicle id="99999955" type="bus" depart="825.00">
        <route edges="623938941 194900180 -159464054 -542757032#1 -557086948#4 -557086948#3 -557086948#2 -692973062 -235826551#3 -423199936#1 -665006537 -735188027#2 -723085255#5  1144085347"/>
        <stop busStop="bs_1" duration="15"/>
        <stop busStop="bs_2" duration="15"/>
        <stop busStop="bs_4" duration="15"/>
        <stop busStop="bs_7" duration="15"/>
        <stop busStop="bs_9" duration="15"/>
    </vehicle>
    <vehicle id="99999958" type="bus" depart="870.00">
        <route edges="414217743#0 194900180 1594640540 142777087"/>
    </vehicle>
    <vehicle id="99999960" type="bus" depart="900.00">
        <route edges="623938941 194900180 1594640540 142777087"/>
    </vehicle>
    <vehicle id="99999961" type="bus" depart="915.00">
        <route edges="623938941 194900180 1594640540 142777087"/>
    </vehicle>
    <vehicle id="99999962" type="bus" depart="930.00">
        <route edges="-142777087 -542757032#1 -557086948#4 -557086948#3 -557086948#2 -692973062 -235826551#3 -423199936#1 -665006537 -735188027#2 -723085255#5  1144085347"/>
        <stop busStop="bs_1" duration="15"/>
        <stop busStop="bs_2" duration="15"/>
        <stop busStop="bs_4" duration="15"/>
        <stop busStop="bs_7" duration="15"/>
        <stop busStop="bs_9" duration="15"/>
    </vehicle>
    <vehicle id="99999965" type="bus" depart="975.00">
        <route edges="414217743#0 194900180 -159464054 -542757032#1 -557086948#4 -557086948#3 -557086948#2 -692973062 -235826551#3 -423199936#1 -665006537 -735188027#2 -723085255#5  1144085347"/>
        <stop busStop="bs_1" duration="15"/>
        <stop busStop="bs_2" duration="15"/>
        <stop busStop="bs_4" duration="15"/>
        <stop busStop="bs_7" duration="15"/>
        <stop busStop="bs_9" duration="15"/>
    </vehicle>
    <vehicle id="99999969" type="bus" depart="1035.00">
        <route edges="623938941 194900180 -159464054 -542757032#1 -557086948#4 -557086948#3 -557086948#2 -692973062 -235826551#3 -423199936#1 -665006537 -735188027#2 -723085255#5  1144085347"/>
        <stop busStop="bs_1" duration="15"/>
        <stop busStop="bs_2" duration="15"/>
        <stop busStop="bs_4" duration="15"/>
        <stop busStop="bs_7" duration="15"/>
        <stop busStop="bs_9" duration="15"/>
    </vehicle>
    <vehicle id="99999970" type="bus" depart="1050.00">
        <route edges="414217743#0 194900180 1594640540 142777087"/>
    </vehicle>
    <vehicle id="99999972" type="bus" depart="1080.00">
        <route edges="414217743#0 194900180 -159464054 -542757032#1 -557086948#4 -557086948#3 -557086948#2 -692973062 -235826551#3 -423199936#1 -665006537 -735188027#2 -723085255#5  1144085347"/>
        <stop busStop="bs_1" duration="15"/>
        <stop busStop="bs_2" duration="15"/>
        <stop busStop="bs_4" duration="15"/>
        <stop busStop="bs_7" duration="15"/>
        <stop busStop="bs_9" duration="15"/>
    </vehicle>
    <vehicle id="99999974" type="bus" depart="1110.00">
        <route edges="-142777087 -542757032#1 -557086948#4 -557086948#3 -557086948#2 -692973062 -235826551#3 -423199936#1 -665006537 -735188027#2 -723085255#5  1144085347"/>
        <stop busStop="bs_1" duration="15"/>
        <stop busStop="bs_2" duration="15"/>
        <stop busStop="bs_4" duration="15"/>
        <stop busStop="bs_7" duration="15"/>
        <stop busStop="bs_9" duration="15"/>
    </vehicle>
    <vehicle id="99999975" type="bus" depart="1125.00">
        <route edges="623938941 194900180 1594640540 142777087"/>
    </vehicle>
    <vehicle id="99999976" type="bus" depart="1140.00">
        <route edges="414217743#0 194900180 1594640540 142777087"/>
    </vehicle>
    <vehicle id="99999977" type="bus" depart="1155.00">
        <route edges="-142777087 -542757032#1 -557086948#4 -557086948#3 -557086948#2 -692973062 -235826551#3 -423199936#1 -665006537 -735188027#2 -723085255#5  1144085347"/>
        <stop busStop="bs_1" duration="15"/>
        <stop busStop="bs_2" duration="15"/>
        <stop busStop="bs_4" duration="15"/>
        <stop busStop="bs_7" duration="15"/>
        <stop busStop="bs_9" duration="15"/>
    </vehicle>
    <vehicle id="99999978" type="bus" depart="1170.00">
        <route edges="414217743#0 194900180 1594640540 142777087"/>
    </vehicle>
    <vehicle id="99999979" type="bus" depart="1185.00">
        <route edges="-142777087 -542757032#1 -557086948#4 -557086948#3 -557086948#2 -692973062 -235826551#3 -423199936#1 -665006537 -735188027#2 -723085255#5  1144085347"/>
        <stop busStop="bs_1" duration="15"/>
        <stop busStop="bs_2" duration="15"/>
        <stop busStop="bs_4" duration="15"/>
        <stop busStop="bs_7" duration="15"/>
        <stop busStop="bs_9" duration="15"/>
    </vehicle>
    <vehicle id="99999982" type="bus" depart="1230.00">
        <route edges="623938941 194900180 -159464054 -542757032#1 -557086948#4 -557086948#3 -557086948#2 -692973062 -235826551#3 -423199936#1 -665006537 -735188027#2 -723085255#5  1144085347"/>
        <stop busStop="bs_1" duration="15"/>
        <stop busStop="bs_2" duration="15"/>
        <stop busStop="bs_4" duration="15"/>
        <stop busStop="bs_7" duration="15"/>
        <stop busStop="bs_9" duration="15"/>
    </vehicle>
    <vehicle id="99999984" type="bus" depart="1260.00">
        <route edges="-142777087 -542757032#1 -557086948#4 -557086948#3 -557086948#2 -692973062 -235826551#3 -423199936#1 -665006537 -735188027#2 -723085255#5  1144085347"/>
        <stop busStop="bs_1" duration="15"/>
        <stop busStop="bs_2" duration="15"/>
        <stop busStop="bs_4" duration="15"/>
        <stop busStop="bs_7" duration="15"/>
        <stop busStop="bs_9" duration="15"/>
    </vehicle>
    <vehicle id="99999985" type="bus" depart="1275.00">
        <route edges="623938941 194900180 1594640540 142777087"/>
    </vehicle>
    <vehicle id="99999987" type="bus" depart="1305.00">
        <route edges="623938941 194900180 -159464054 -542757032#1 -557086948#4 -557086948#3 -557086948#2 -692973062 -235826551#3 -423199936#1 -665006537 -735188027#2 -723085255#5  1144085347"/>
        <stop busStop="bs_1" duration="15"/>
        <stop busStop="bs_2" duration="15"/>
        <stop busStop="bs_4" duration="15"/>
        <stop busStop="bs_7" duration="15"/>
        <stop busStop="bs_9" duration="15"/>
    </vehicle>
    <vehicle id="99999989" type="bus" depart="1335.00">
        <route edges="414217743#0 194900180 1594640540 142777087"/>
    </vehicle>
    <vehicle id="99999991" type="bus" depart="1365.00">
        <route edges="623938941 194900180 -159464054 -542757032#1 -557086948#4 -557086948#3 -557086948#2 -692973062 -235826551#3 -423199936#1 -665006537 -735188027#2 -723085255#5  1144085347"/>
        <stop busStop="bs_1" duration="15"/>
        <stop busStop="bs_2" duration="15"/>
        <stop busStop="bs_4" duration="15"/>
        <stop busStop="bs_7" duration="15"/>
        <stop busStop="bs_9" duration="15"/>
    </vehicle>
    <vehicle id="99999992" type="bus" depart="1380.00">
        <route edges="414217743#0 194900180 1594640540 142777087"/>
    </vehicle>
    <vehicle id="99999993" type="bus" depart="1395.00">
        <route edges="623938941 194900180 -159464054 -542757032#1 -557086948#4 -557086948#3 -557086948#2 -692973062 -235826551#3 -423199936#1 -665006537 -735188027#2 -723085255#5  1144085347"/>
        <stop busStop="bs_1" duration="15"/>
        <stop busStop="bs_2" duration="15"/>
        <stop busStop="bs_4" duration="15"/>
        <stop busStop="bs_7" duration="15"/>
        <stop busStop="bs_9" duration="15"/>
    </vehicle>
    <vehicle id="99999995" type="bus" depart="1425.00">
        <route edges="414217743#0 194900180 -159464054 -542757032#1 -557086948#4 -557086948#3 -557086948#2 -692973062 -235826551#3 -423199936#1 -665006537 -735188027#2 -723085255#5  1144085347"/>
        <stop busStop="bs_1" duration="15"/>
        <stop busStop="bs_2" duration="15"/>
        <stop busStop="bs_4" duration="15"/>
        <stop busStop="bs_7" duration="15"/>
        <stop busStop="bs_9" duration="15"/>
    </vehicle>
    <vehicle id="999999101" type="bus" depart="1515.00">
        <route edges="623938941 194900180 -159464054 -542757032#1 -557086948#4 -557086948#3 -557086948#2 -692973062 -235826551#3 -423199936#1 -665006537 -735188027#2 -723085255#5  1144085347"/>
        <stop busStop="bs_1" duration="15"/>
        <stop busStop="bs_2" duration="15"/>
        <stop busStop="bs_4" duration="15"/>
        <stop busStop="bs_7" duration="15"/>
        <stop busStop="bs_9" duration="15"/>
    </vehicle>
    <vehicle id="999999102" type="bus" depart="1530.00">
        <route edges="414217743#0 194900180 -159464054 -542757032#1 -557086948#4 -557086948#3 -557086948#2 -692973062 -235826551#3 -423199936#1 -665006537 -735188027#2 -723085255#5  1144085347"/>
        <stop busStop="bs_1" duration="15"/>
        <stop busStop="bs_2" duration="15"/>
        <stop busStop="bs_4" duration="15"/>
        <stop busStop="bs_7" duration="15"/>
        <stop busStop="bs_9" duration="15"/>
    </vehicle>
    <vehicle id="999999103" type="bus" depart="1545.00">
        <route edges="414217743#0 194900180 -159464054 -542757032#1 -557086948#4 -557086948#3 -557086948#2 -692973062 -235826551#3 -423199936#1 -665006537 -735188027#2 -723085255#5  1144085347"/>
        <stop busStop="bs_1" duration="15"/>
        <stop busStop="bs_2" duration="15"/>
        <stop busStop="bs_4" duration="15"/>
        <stop busStop="bs_7" duration="15"/>
        <stop busStop="bs_9" duration="15"/>
    </vehicle>
    <vehicle id="999999106" type="bus" depart="1590.00">
        <route edges="414217743#0 194900180 1594640540 142777087"/>
    </vehicle>
    <vehicle id="999999109" type="bus" depart="1635.00">
        <route edges="-142777087 -542757032#1 -557086948#4 -557086948#3 -557086948#2 -692973062 -235826551#3 -423199936#1 -665006537 -735188027#2 -723085255#5  1144085347"/>
        <stop busStop="bs_1" duration="15"/>
        <stop busStop="bs_2" duration="15"/>
        <stop busStop="bs_4" duration="15"/>
        <stop busStop="bs_7" duration="15"/>
        <stop busStop="bs_9" duration="15"/>
    </vehicle>
    <vehicle id="999999110" type="bus" depart="1650.00">
        <route edges="623938941 194900180 1594640540 142777087"/>
    </vehicle>
    <vehicle id="999999115" type="bus" depart="1725.00">
        <route edges="-142777087 -542757032#1 -557086948#4 -557086948#3 -557086948#2 -692973062 -235826551#3 -423199936#1 -665006537 -735188027#2 -723085255#5  1144085347"/>
        <stop busStop="bs_1" duration="15"/>
        <stop busStop="bs_2" duration="15"/>
        <stop busStop="bs_4" duration="15"/>
        <stop busStop="bs_7" duration="15"/>
        <stop busStop="bs_9" duration="15"/>
    </vehicle>
    <vehicle id="999999117" type="bus" depart="1755.00">
        <route edges="-142777087 -542757032#1 -557086948#4 -557086948#3 -557086948#2 -692973062 -235826551#3 -423199936#1 -665006537 -735188027#2 -723085255#5  1144085347"/>
        <stop busStop="bs_1" duration="15"/>
        <stop busStop="bs_2" duration="15"/>
        <stop busStop="bs_4" duration="15"/>
        <stop busStop="bs_7" duration="15"/>
        <stop busStop="bs_9" duration="15"/>
    </vehicle>
    <vehicle id="999999118" type="bus" depart="1770.00">
        <route edges="623938941 194900180 -159464054 -542757032#1 -557086948#4 -557086948#3 -557086948#2 -692973062 -235826551#3 -423199936#1 -665006537 -735188027#2 -723085255#5  1144085347"/>
        <stop busStop="bs_1" duration="15"/>
        <stop busStop="bs_2" duration="15"/>
        <stop busStop="bs_4" duration="15"/>
        <stop busStop="bs_7" duration="15"/>
        <stop busStop="bs_9" duration="15"/>
    </vehicle>
    <vehicle id="999999119" type="bus" depart="1785.00">
        <route edges="423199309#0 -723085254 -753866466#5 -542807707 -707457972#2 -936543450 -693467519#3 -693467519#1 -557086935#4 -1125594742 -525704074#5 -525704074#0  142777087"/>
        <stop busStop="bs_8" duration="15"/>
        <stop busStop="bs_6" duration="15"/>
        <stop busStop="bs_5" duration="15"/>
        <stop busStop="bs_3" duration="15"/>
        <stop busStop="bs_0" duration="15"/>
    </vehicle>
    <vehicle id="999999120" type="bus" depart="1800.00">
        <route edges="414217743#0 194900180 1594640540 142777087"/>
    </vehicle>
    <vehicle id="999999128" type="bus" depart="1920.00">
        <route edges="-142777087 -542757032#1 -557086948#4 -557086948#3 -557086948#2 -692973062 -235826551#3 -423199936#1 -665006537 -735188027#2 -723085255#5  1144085347"/>
        <stop busStop="bs_1" duration="15"/>
        <stop busStop="bs_2" duration="15"/>
        <stop busStop="bs_4" duration="15"/>
        <stop busStop="bs_7" duration="15"/>
        <stop busStop="bs_9" duration="15"/>
    </vehicle>
    <vehicle id="999999131" type="bus" depart="1965.00">
        <route edges="414217743#0 194900180 -159464054 -542757032#1 -557086948#4 -557086948#3 -557086948#2 -692973062 -235826551#3 -423199936#1 -665006537 -735188027#2 -723085255#5  1144085347"/>
        <stop busStop="bs_1" duration="15"/>
        <stop busStop="bs_2" duration="15"/>
        <stop busStop="bs_4" duration="15"/>
        <stop busStop="bs_7" duration="15"/>
        <stop busStop="bs_9" duration="15"/>
    </vehicle>
    <vehicle id="999999135" type="bus" depart="2025.00">
        <route edges="623938941 194900180 -159464054 -542757032#1 -557086948#4 -557086948#3 -557086948#2 -692973062 -235826551#3 -423199936#1 -665006537 -735188027#2 -723085255#5  1144085347"/>
        <stop busStop="bs_1" duration="15"/>
        <stop busStop="bs_2" duration="15"/>
        <stop busStop="bs_4" duration="15"/>
        <stop busStop="bs_7" duration="15"/>
        <stop busStop="bs_9" duration="15"/>
    </vehicle>
    <vehicle id="999999137" type="bus" depart="2055.00">
        <route edges="-142777087 -542757032#1 -557086948#4 -557086948#3 -557086948#2 -692973062 -235826551#3 -423199936#1 -665006537 -735188027#2 -723085255#5  1144085347"/>
        <stop busStop="bs_1" duration="15"/>
        <stop busStop="bs_2" duration="15"/>
        <stop busStop="bs_4" duration="15"/>
        <stop busStop="bs_7" duration="15"/>
        <stop busStop="bs_9" duration="15"/>
    </vehicle>
    <vehicle id="999999139" type="bus" depart="2085.00">
        <route edges="414217743#0 194900180 1594640540 142777087"/>
    </vehicle>
    <vehicle id="999999143" type="bus" depart="2145.00">
        <route edges="623938941 194900180 -159464054 -542757032#1 -557086948#4 -557086948#3 -557086948#2 -692973062 -235826551#3 -423199936#1 -665006537 -735188027#2 -723085255#5  1144085347"/>
        <stop busStop="bs_1" duration="15"/>
        <stop busStop="bs_2" duration="15"/>
        <stop busStop="bs_4" duration="15"/>
        <stop busStop="bs_7" duration="15"/>
        <stop busStop="bs_9" duration="15"/>
    </vehicle>
    <vehicle id="999999144" type="bus" depart="2160.00">
        <route edges="414217743#0 194900180 -159464054 -542757032#1 -557086948#4 -557086948#3 -557086948#2 -692973062 -235826551#3 -423199936#1 -665006537 -735188027#2 -723085255#5  1144085347"/>
        <stop busStop="bs_1" duration="15"/>
        <stop busStop="bs_2" duration="15"/>
        <stop busStop="bs_4" duration="15"/>
        <stop busStop="bs_7" duration="15"/>
        <stop busStop="bs_9" duration="15"/>
    </vehicle>
    <vehicle id="999999147" type="bus" depart="2205.00">
        <route edges="423199309#0 -723085254 -753866466#5 -542807707 -707457972#2 -936543450 -693467519#3 -693467519#1 -557086935#4 -1125594742 -525704074#5 -525704074#0  142777087"/>
        <stop busStop="bs_8" duration="15"/>
        <stop busStop="bs_6" duration="15"/>
        <stop busStop="bs_5" duration="15"/>
        <stop busStop="bs_3" duration="15"/>
        <stop busStop="bs_0" duration="15"/>
    </vehicle>
    <vehicle id="999999148" type="bus" depart="2220.00">
        <route edges="414217743#0 194900180 -159464054 -542757032#1 -557086948#4 -557086948#3 -557086948#2 -692973062 -235826551#3 -423199936#1 -665006537 -735188027#2 -723085255#5  1144085347"/>
        <stop busStop="bs_1" duration="15"/>
        <stop busStop="bs_2" duration="15"/>
        <stop busStop="bs_4" duration="15"/>
        <stop busStop="bs_7" duration="15"/>
        <stop busStop="bs_9" duration="15"/>
    </vehicle>
    <vehicle id="999999150" type="bus" depart="2250.00">
        <route edges="623938941 194900180 1594640540 142777087"/>
    </vehicle>
    <vehicle id="999999151" type="bus" depart="2265.00">
        <route edges="623938941 194900180 1594640540 142777087"/>
    </vehicle>
    <vehicle id="999999152" type="bus" depart="2280.00">
        <route edges="-142777087 -542757032#1 -557086948#4 -557086948#3 -557086948#2 -692973062 -235826551#3 -423199936#1 -665006537 -735188027#2 -723085255#5  1144085347"/>
        <stop busStop="bs_1" duration="15"/>
        <stop busStop="bs_2" duration="15"/>
        <stop busStop="bs_4" duration="15"/>
        <stop busStop="bs_7" duration="15"/>