<?xml version="1.0" encoding="UTF-8"?>

<!-- generated on 2023-08-23 18:27:16 by Eclipse SUMO netconvert Version 1.12.0
<configuration xmlns:xsi="http://www.w3.org/2001/XMLSchema-instance" xsi:noNamespaceSchemaLocation="http://sumo.dlr.de/xsd/netconvertConfiguration.xsd">

    <input>
        <osm-files value="map.osm"/>
    </input>

    <output>
        <plain-output-prefix value="vake"/>
    </output>

    <projection>
        <proj.utm value="true"/>
    </projection>

    <processing>
        <geometry.remove value="true"/>
        <roundabouts.guess value="true"/>
    </processing>

    <tls_building>
        <tls.discard-simple value="true"/>
        <tls.join value="true"/>
        <tls.guess-signals value="true"/>
    </tls_building>

    <ramp_guessing>
        <ramps.guess value="true"/>
    </ramp_guessing>

    <junctions>
        <junctions.join value="true"/>
    </junctions>

    <report>
        <aggregate-warnings value="5"/>
    </report>

</configuration>
-->

<tlLogics version="1.9" xmlns:xsi="http://www.w3.org/2001/XMLSchema-instance" xsi:noNamespaceSchemaLocation="http://sumo.dlr.de/xsd/tllogic_file.xsd">
    <tlLogic id="10653188608" type="static" programID="0" offset="0">
        <phase duration="82" state="GGGGg"/>
        <phase duration="3"  state="yyyyy"/>
        <phase duration="5"  state="rrrrr"/>
    </tlLogic>
    <tlLogic id="1454820073" type="static" programID="0" offset="0">
        <phase duration="41" state="GgrrGGGg"/>
        <phase duration="4"  state="yyrryyyy"/>
        <phase duration="41" state="rrGGrrrr"/>
        <phase duration="4"  state="rryyrrrr"/>
    </tlLogic>
    <tlLogic id="1822974752" type="static" programID="0" offset="0">
        <phase duration="82" state="GgGGG"/>
        <phase duration="3"  state="yyyyy"/>
        <phase duration="5"  state="rrrrr"/>
    </tlLogic>
    <tlLogic id="255124694" type="static" programID="0" offset="0">
        <phase duration="40" state="GgrrGGGg"/>
        <phase duration="5"  state="yyrryyyy"/>
        <phase duration="40" state="rrGGrrrr"/>
        <phase duration="5"  state="rryyrrrr"/>
    </tlLogic>
    <tlLogic id="3691148896" type="static" programID="0" offset="0">
        <phase duration="82" state="GgGGG"/>
        <phase duration="3"  state="yyyyy"/>
        <phase duration="5"  state="rrrrr"/>
    </tlLogic>
    <tlLogic id="3691148899" type="static" programID="0" offset="0">
        <phase duration="82" state="GGGGg"/>
        <phase duration="3"  state="yyyyy"/>
        <phase duration="5"  state="rrrrr"/>
    </tlLogic>
    <tlLogic id="cluster_10650430968_1068809697_255124678_6478584759_7780080657_8587790034_889421539" type="static" programID="0" offset="0">
        <phase duration="20" state="rrrrrrrrrrrrrrGGGrrrrrrrrrrrrrrrrrrGGGGrr"/>
        <phase duration="6"  state="rrrrrrrrrrrrrryyyrrrrrrrrrrrrrrrrrryyyyrr"/>
        <phase duration="6"  state="rrrrrrrrrrrrrrrrrGGGGrrrrrrrrrrrrrrrrrrGG"/>
        <phase duration="6"  state="rrrrrrrrrrrrrrrrryyyyrrrrrrrrrrrrrrrrrryy"/>
        <phase duration="20" state="GgGgggggrrrrrrrrrrrrrrrrrrrGgGGGgggrrrrrr"/>
        <phase duration="6"  state="yyyyyyyyrrrrrrrrrrrrrrrrrrryyyyyyyyrrrrrr"/>
        <phase duration="20" state="rrrrrrrrGGGGggrrrrrrrGGggggrrrrrrrrrrrrrr"/>
        <phase duration="6"  state="rrrrrrrryyyyyyrrrrrrryyyyyyrrrrrrrrrrrrrr"/>
    </tlLogic>
    <tlLogic id="cluster_1068809710_8587790014_8587790015_9871812716" type="static" programID="0" offset="0">
        <phase duration="27" state="GrrrrrrrrrrGGGGGGg"/>
        <phase duration="3"  state="yrrrrrrrrrryyyyyyy"/>
        <phase duration="27" state="GrrrrGggGGgrrrrrrr"/>
        <phase duration="3"  state="yrrrryyyyyyrrrrrrr"/>
        <phase duration="27" state="GGGGGrrrrrrrrrrrrr"/>
        <phase duration="3"  state="yyyyyrrrrrrrrrrrrr"/>
    </tlLogic>
    <tlLogic id="cluster_10693361383_10693361385_1789741607_255124671_6478586735" type="static" programID="0" offset="0">
        <phase duration="25" state="Grr"/>
        <phase duration="5"  state="yrr"/>
        <phase duration="25" state="rrG"/>
        <phase duration="5"  state="rry"/>
        <phase duration="25" state="rGr"/>
        <phase duration="5"  state="ryr"/>
    </tlLogic>
    <tlLogic id="cluster_1428008199_255124618_9236077669" type="static" programID="0" offset="0">
        <phase duration="17" state="rrrrrrrrrrGGGGGGgGrrrrrrrrr"/>
        <phase duration="4"  state="rrrrrrrrrryyyyyyyyrrrrrrrrr"/>
        <phase duration="19" state="rrrrrGGgggrrrrrrrrrrrrgGGgg"/>
        <phase duration="4"  state="rrrrryyyyyrrrrrrrrrrrryyyyy"/>
        <phase duration="19" state="rrrrrrrrrrrrrrrrrGGGGgGrrrr"/>
        <phase duration="4"  state="rrrrrrrrrrrrrrrrryyyyyyrrrr"/>
        <phase duration="19" state="GGGGgGrrrrrrrrrrrrrrrrrrrrr"/>
        <phase duration="4"  state="yyyyyyrrrrrrrrrrrrrrrrrrrrr"/>
    </tlLogic>
    <tlLogic id="cluster_1442465562_1789736246_255125290_3691148917_6505841518_8587790003" type="static" programID="0" offset="0">
        <phase duration="15" state="rrrrrgGrrrrrrrrrrrGGgrrGGGgrrrr"/>
        <phase duration="3"  state="rrrrryyrrrrrrrrrrryygrryyyyrrrr"/>
        <phase duration="6"  state="rrrrrrrrrrrrrrrrrrGGGrrrrrrrrrr"/>
        <phase duration="3"  state="rrrrrrrrrrrrrrrrrryyyrrrrrrrrrr"/>
        <phase duration="18" state="rrrrrrGGgggGrrrrrrrrrrrrrrrGGGg"/>
        <phase duration="3"  state="rrrrrryyyyyyrrrrrrrrrrrrrrryyyy"/>
        <phase duration="18" state="GgGGGgGrrrrrrrrrrrrrrggrrrrrrrr"/>
        <phase duration="3"  state="yyyyyyyrrrrrrrrrrrrrryyrrrrrrrr"/>
        <phase duration="18" state="rrrrrrrrrrrrGGGGGGrrrrrrrrrrrrr"/>
        <phase duration="3"  state="rrrrrrrrrrrryyyyyyrrrrrrrrrrrrr"/>
    </tlLogic>
    <tlLogic id="cluster_1454793147_1494021901_1789730769_255125584_3691148895_8587789980_8883284989_9236077682" type="static" programID="0" offset="0">
        <phase duration="6"  state="rrrrGrrrrrrrrGrrrrrrrrGrrrrrrrrGGGgGrrrrrrrrrrrrrrrGGGGGGGg"/>
        <phase duration="4"  state="rrrryrrrrrrrryrrrrrrrryrrrrrrrryyyyyrrrrrrrrrrrrrrryyyyyyyy"/>
        <phase duration="10" state="rrrrrrrrrrrrrrrrrrrrrrrGGGgggGGrrrrrrrrrGrrrrrrGGGgrrrrrrrr"/>
        <phase duration="4"  state="rrrrrrrrrrrrrrrrrrrrrrryyyyyyyyrrrrrrrrryrrrrrryyyyrrrrrrrr"/>
        <phase duration="10" state="GGGGGggggggGGGrrrrrrrrrrrrrrrrrrrrrrrrrrGrrrrrrrrrrrrrrrrrr"/>
        <phase duration="4"  state="yyyyyyyyyyyyyyrrrrrrrrrrrrrrrrrrrrrrrrrryrrrrrrrrrrrrrrrrrr"/>
        <phase duration="10" state="rrrrGgrrrrrGGGrrrrrrrrrrrrrrrrrrrrrGGGGGGrrrrggrrrrrrrrrrrr"/>
        <phase duration="4"  state="rrrryyrrrrryyyrrrrrrrrrrrrrrrrrrrrryyyyyyrrrrggrrrrrrrrrrrr"/>
        <phase duration="6"  state="rrrrrrrrrrrrrrrrrrrrrrrrrrrrrrrrrrrrrrrrrrrrrGGrrrrrrrrrrrr"/>
        <phase duration="4"  state="rrrrrrrrrrrrrrrrrrrrrrrrrrrrrrrrrrrrrrrrrrrrryyrrrrrrrrrrrr"/>
        <phase duration="10" state="rrrrrrrrrrrrrrGGGGGGGGGrrrrrrrrrrrrrrrrrGrrrrrrrrrrrrrrrrrr"/>
        <phase duration="4"  state="rrrrrrrrrrrrrryyyyyyyyyrrrrrrrrrrrrrrrrryrrrrrrrrrrrrrrrrrr"/>
        <phase duration="10" state="rrrrGgrrrrrGGGrrrrrrrrrrrrrrrrrrrrrGrrrrrGGGGrrrrrrrrrrrrrr"/>
        <phase duration="4"  state="rrrryyrrrrryyyrrrrrrrrrrrrrrrrrrrrryrrrrryyyyrrrrrrrrrrrrrr"/>
    </tlLogic>
    <tlLogic id="cluster_1788409520_1788409521_1788413619_1788413624_255125480" type="static" programID="0" offset="0">
        <phase duration="40" state="GGrrr"/>
        <phase duration="5"  state="yyrrr"/>
        <phase duration="40" state="rrGGG"/>
        <phase duration="5"  state="rryyy"/>
    </tlLogic>
    <tlLogic id="cluster_1788418431_255125474" type="static" programID="0" offset="0">
        <phase duration="80" state="GGGG"/>
        <phase duration="5"  state="yyyy"/>
        <phase duration="5"  state="rrrr"/>
    </tlLogic>
    <tlLogic id="cluster_1788424244_1788424245_1788424246_1788424247_255124647" type="static" programID="0" offset="0">
        <phase duration="80" state="gGgGGgGG"/>
        <phase duration="5"  state="yyyyyyyy"/>
        <phase duration="5"  state="rrrrrrrr"/>
    </tlLogic>
    <tlLogic id="cluster_1788428321_3691148910_8008942127_8677984584_9236077679_9887285370" type="static" programID="0" offset="0">
        <phase duration="12" state="rrrrrrrrrrGGGGgGrrrrGGrgrrrrrrrrrrrrrrrrGGGrGrrrrrrrrrrrrrrrrr"/>
        <phase duration="3"  state="rrrrrrrrrryyyyyyrrrryyryrrrrrrrrrrrrrrrryyyryrrrrrrrrrrrrrrrrr"/>
        <phase duration="12" state="rrrrrGGGggrrrrrrrrrrrrrrrrrrrrrrrrrrrrrrrrrGGGGgggGGrrrrrrrrrr"/>
        <phase duration="3"  state="rrrrryyyyyrrrrrrrrrrrrrrrrrrrrrrrrrrrrrrrrryyyyyyyyyrrrrrrrrrr"/>
        <phase duration="12" state="GGgggrrrrrrrrrrrrrrrrrrrrrrrrrrGGGGGggGGrrrrrrrrrrrrrrrrrrrrrr"/>
        <phase duration="3"  state="yyyyyrrrrrrrrrrrrrrrrrrrrrrrrrryyyyyyyyyrrrrrrrrrrrrrrrrrrrrrr"/>
        <phase duration="12" state="rrrrrrrrrrrrrrrgggGGGGGGrrrrrrrrrrrrrrrrrrrrrrrrrrrrrrrrrggggg"/>
        <phase duration="3"  state="rrrrrrrrrrrrrrryyyyyyyyyrrrrrrrrrrrrrrrrrrrrrrrrrrrrrrrrryyyyy"/>
        <phase duration="12" state="rrrrrrrrrrrrrrrrrrrrGGGGrrrrrrrrrrrrrrrrrrrrrrrrrrrrGGGGgGrrrr"/>
        <phase duration="3"  state="rrrrrrrrrrrrrrrrrrrryyyyrrrrrrrrrrrrrrrrrrrrrrrrrrrryyyyyyrrrr"/>
        <phase duration="12" state="rrrrrrrrrrrrrrrrrrrrrrrGGGGGGGgGrrrrrrrGrrrrrrrrrrrrrrrrrrrrrr"/>
        <phase duration="3"  state="rrrrrrrrrrrrrrrrrrrrrrryyyyyyyyyrrrrrrryrrrrrrrrrrrrrrrrrrrrrr"/>
    </tlLogic>
    <tlLogic id="cluster_1788429490_1788429491_1788429492_1788429493_255125578" type="static" programID="0" offset="0">
        <phase duration="40" state="GGrr"/>
        <phase duration="5"  state="yyrr"/>
        <phase duration="40" state="rrGG"/>
        <phase duration="5"  state="rryy"/>
    </tlLogic>
    <tlLogic id="cluster_1789732556_1789732557_1789732558_1789732559_255125642" type="static" programID="0" offset="0">
        <phase duration="40" state="GGrrr"/>
        <phase duration="5"  state="yyrrr"/>
        <phase duration="40" state="rrGGG"/>
        <phase duration="5"  state="rryyy"/>
    </tlLogic>
    <tlLogic id="cluster_1789736407_255125487" type="static" programID="0" offset="0">
        <phase duration="40" state="GGrG"/>
        <phase duration="5"  state="yyry"/>
        <phase duration="40" state="rrGG"/>
        <phase duration="5"  state="rryy"/>
    </tlLogic>
    <tlLogic id="cluster_255125780_8587790021" type="static" programID="0" offset="0">
        <phase duration="27" state="rrrrrrGGGGGGgGrrrr"/>
        <phase duration="3"  state="rrrrrryyyyyyyyrrrr"/>
        <phase duration="27" state="GggGGgrrrrrrgGrrrr"/>
        <phase duration="3"  state="yyyyyyrrrrrryyrrrr"/>
        <phase duration="27" state="rrrrrrrrrrrrrGGGGG"/>
        <phase duration="3"  state="rrrrrrrrrrrrryyyyy"/>
    </tlLogic>
    <tlLogic id="cluster_255125806_6478584764_6478584769_6481644451_6481644452" type="static" programID="0" offset="0">
        <phase duration="42" state="rrrGG"/>
        <phase duration="3"  state="rrryy"/>
        <phase duration="42" state="GGGrr"/>
        <phase duration="3"  state="yyyrr"/>
    </tlLogic>
    <tlLogic id="cluster_3691152249_3787229048_7043417689_7043417690_8587789943" type="static" programID="0" offset="0">
        <phase duration="15" state="GGGgrrrrrrrrrrGrrrrGrrrrrrGGgGrr"/>
        <phase duration="3"  state="yyyyrrrrrrrrrryrrrryrrrrrryygyrr"/>
        <phase duration="6"  state="rrrrrrrrrrrrrrrrrrrrrrrrrrGGGGrr"/>
        <phase duration="3"  state="rrrrrrrrrrrrrrrrrrrrrrrrrryyyyrr"/>
        <phase duration="15" state="rrrrrrrrggGGGgrrrrrrGGggggrrrrrr"/>
        <phase duration="3"  state="rrrrrrrryyyyyyrrrrrryyyyyyrrrrrr"/>
        <phase duration="15" state="rrrrGGGgrrrrrrGGgggGrrrrrrrrrrrr"/>
        <phase duration="3"  state="rrrryyyyrrrrrryygggyrrrrrrrrrrrr"/>
        <phase duration="6"  state="rrrrrrrrrrrrrrGGGGGGrrrrrrrrrrrr"/>
        <phase duration="3"  state="rrrrrrrrrrrrrryyyyyyrrrrrrrrrrrr"/>
        <phase duration="15" state="GGGrrrGgGrrrGgGrrrrrrrrrrrrrrrGg"/>
        <phase duration="3"  state="yyyrrryyyrrryyyrrrrrrrrrrrrrrryy"/>
    </tlLogic>
    <tlLogic id="cluster_3743885932_8870249761_9236077698" type="static" programID="0" offset="0">
        <phase duration="15" state="rrrrrrrrrrGGGGgGrrrrrrrrr"/>
        <phase duration="3"  state="rrrrrrrrrryyyyyyrrrrrrrrr"/>
        <phase duration="18" state="rrrrrGGGggrrrrrrrrrrgGGgg"/>
        <phase duration="3"  state="rrrrryyyggrrrrrrrrrrgyygg"/>
        <phase duration="6"  state="rrrrrrrrGGrrrrrrrrrrGrrGG"/>
        <phase duration="3"  state="rrrrrrrryyrrrrrrrrrryrryy"/>
        <phase duration="18" state="rrrrrrrrrrrrrrrGGGGgGrrrr"/>
        <phase duration="3"  state="rrrrrrrrrrrrrrryyyyyyrrrr"/>
        <phase duration="18" state="GGGGgGrrrrrrrrrrrrrrrrrrr"/>
        <phase duration="3"  state="yyyyyyrrrrrrrrrrrrrrrrrrr"/>
    </tlLogic>

    <connection from="-1000601922#1" to="-426720110#2" fromLane="0" toLane="0" tl="cluster_1428008199_255124618_9236077669" linkIndex="5"/>
    <connection from="-1000601922#1" to="-1000601922#0" fromLane="0" toLane="0" tl="cluster_1428008199_255124618_9236077669" linkIndex="6"/>
    <connection from="-1000601922#1" to="723085254" fromLane="0" toLane="1" tl="cluster_1428008199_255124618_9236077669" linkIndex="7"/>
    <connection from="-1000601922#1" to="-753866466#5" fromLane="0" toLane="0" tl="cluster_1428008199_255124618_9236077669" linkIndex="8"/>
    <connection from="-1000601922#1" to="1000601922#1" fromLane="0" toLane="0" tl="cluster_1428008199_255124618_9236077669" linkIndex="9"/>
    <connection from="-1000601922#10" to="859186438#2" fromLane="0" toLane="0" tl="cluster_1788428321_3691148910_8008942127_8677984584_9236077679_9887285370" linkIndex="5"/>
    <connection from="-1000601922#10" to="-1000601922#9" fromLane="0" toLane="0" tl="cluster_1788428321_3691148910_8008942127_8677984584_9236077679_9887285370" linkIndex="6"/>
    <connection from="-1000601922#10" to="936543450" fromLane="0" toLane="0" tl="cluster_1788428321_3691148910_8008942127_8677984584_9236077679_9887285370" linkIndex="7"/>
    <connection from="-1000601922#10" to="-693467519#3" fromLane="0" toLane="0" tl="cluster_1788428321_3691148910_8008942127_8677984584_9236077679_9887285370" linkIndex="8"/>
    <connection from="-1000601922#10" to="1000601922#10" fromLane="0" toLane="0" tl="cluster_1788428321_3691148910_8008942127_8677984584_9236077679_9887285370" linkIndex="9"/>
    <connection from="-1000601922#13" to="845996846#3" fromLane="0" toLane="0" tl="cluster_1454793147_1494021901_1789730769_255125584_3691148895_8587789980_8883284989_9236077682" linkIndex="47"/>
    <connection from="-1000601922#13" to="203443509" fromLane="0" toLane="0" tl="cluster_1454793147_1494021901_1789730769_255125584_3691148895_8587789980_8883284989_9236077682" linkIndex="48"/>
    <connection from="-1000601922#13" to="-1000601922#12" fromLane="0" toLane="0" tl="cluster_1454793147_1494021901_1789730769_255125584_3691148895_8587789980_8883284989_9236077682" linkIndex="49"/>
    <connection from="-1000601922#13" to="1000601922#13" fromLane="0" toLane="0" tl="cluster_1454793147_1494021901_1789730769_255125584_3691148895_8587789980_8883284989_9236077682" linkIndex="50"/>
    <connection from="-1000601922#24" to="-370693008#0" fromLane="0" toLane="0" tl="cluster_3743885932_8870249761_9236077698" linkIndex="5"/>
    <connection from="-1000601922#24" to="-1000601922#23" fromLane="0" toLane="0" tl="cluster_3743885932_8870249761_9236077698" linkIndex="6"/>
    <connection from="-1000601922#24" to="525704074#1" fromLane="0" toLane="1" tl="cluster_3743885932_8870249761_9236077698" linkIndex="7"/>
    <connection from="-1000601922#24" to="-525704074#0" fromLane="0" toLane="0" tl="cluster_3743885932_8870249761_9236077698" linkIndex="8"/>
    <connection from="-1000601922#24" to="1000601922#24" fromLane="0" toLane="0" tl="cluster_3743885932_8870249761_9236077698" linkIndex="9"/>
    <connection from="-1125594741#1" to="-525704074#4" fromLane="0" toLane="0" tl="cluster_1442465562_1789736246_255125290_3691148917_6505841518_8587790003" linkIndex="27"/>
    <connection from="-1125594741#1" to="1125594742" fromLane="0" toLane="0" tl="cluster_1442465562_1789736246_255125290_3691148917_6505841518_8587790003" linkIndex="28"/>
    <connection from="-1125594741#1" to="-692973062" fromLane="0" toLane="0" tl="cluster_1442465562_1789736246_255125290_3691148917_6505841518_8587790003" linkIndex="29"/>
    <connection from="-1125594741#1" to="1125594741#1" fromLane="0" toLane="2" tl="cluster_1442465562_1789736246_255125290_3691148917_6505841518_8587790003" linkIndex="30"/>
    <connection from="-1125594742" to="-525704074#4" fromLane="0" toLane="0" tl="cluster_1442465562_1789736246_255125290_3691148917_6505841518_8587790003" linkIndex="21"/>
    <connection from="-1125594742" to="1125594742" fromLane="0" toLane="2" tl="cluster_1442465562_1789736246_255125290_3691148917_6505841518_8587790003" linkIndex="22"/>
    <connection from="-203443509" to="845996846#3" fromLane="0" toLane="1" tl="cluster_1454793147_1494021901_1789730769_255125584_3691148895_8587789980_8883284989_9236077682" linkIndex="45"/>
    <connection from="-203443509" to="203443509" fromLane="0" toLane="0" tl="cluster_1454793147_1494021901_1789730769_255125584_3691148895_8587789980_8883284989_9236077682" linkIndex="46"/>
    <connection from="-220709393" to="-159464054" fromLane="0" toLane="0" tl="cluster_10650430968_1068809697_255124678_6478584759_7780080657_8587790034_889421539" linkIndex="8"/>
    <connection from="-220709393" to="845996849" fromLane="0" toLane="1" tl="cluster_10650430968_1068809697_255124678_6478584759_7780080657_8587790034_889421539" linkIndex="9"/>
    <connection from="-220709393" to="-542757032#1" fromLane="0" toLane="0" tl="cluster_10650430968_1068809697_255124678_6478584759_7780080657_8587790034_889421539" linkIndex="10"/>
    <connection from="-220709393" to="-925332116#29" fromLane="0" toLane="0" tl="cluster_10650430968_1068809697_255124678_6478584759_7780080657_8587790034_889421539" linkIndex="11"/>
    <connection from="-220709393" to="-149098150#0" fromLane="0" toLane="0" tl="cluster_10650430968_1068809697_255124678_6478584759_7780080657_8587790034_889421539" linkIndex="12"/>
    <connection from="-220709393" to="220709393" fromLane="0" toLane="2" tl="cluster_10650430968_1068809697_255124678_6478584759_7780080657_8587790034_889421539" linkIndex="13"/>
    <connection from="-23560541#1" to="723085252#1" fromLane="0" toLane="0" tl="cluster_1788424244_1788424245_1788424246_1788424247_255124647" linkIndex="0"/>
    <connection from="-23560541#1" to="832956458#1" fromLane="0" toLane="0" tl="cluster_1788424244_1788424245_1788424246_1788424247_255124647" linkIndex="1"/>
    <connection from="-23560541#1" to="23560541#1" fromLane="0" toLane="1" tl="cluster_1788424244_1788424245_1788424246_1788424247_255124647" linkIndex="2"/>
    <connection from="-235826551#0" to="1000601922#13" fromLane="0" toLane="0" tl="cluster_1454793147_1494021901_1789730769_255125584_3691148895_8587789980_8883284989_9236077682" linkIndex="0"/>
    <connection from="-235826551#0" to="845996846#3" fromLane="0" toLane="0" tl="cluster_1454793147_1494021901_1789730769_255125584_3691148895_8587789980_8883284989_9236077682" linkIndex="1"/>
    <connection from="-235826551#0" to="203443509" fromLane="0" toLane="0" tl="cluster_1454793147_1494021901_1789730769_255125584_3691148895_8587789980_8883284989_9236077682" linkIndex="2"/>
    <connection from="-235826551#0" to="-1000601922#12" fromLane="0" toLane="0" tl="cluster_1454793147_1494021901_1789730769_255125584_3691148895_8587789980_8883284989_9236077682" linkIndex="3"/>
    <connection from="-235826551#0" to="-423199936#0" fromLane="0" toLane="0" tl="cluster_1454793147_1494021901_1789730769_255125584_3691148895_8587789980_8883284989_9236077682" linkIndex="4"/>
    <connection from="-235826551#0" to="235826551#0" fromLane="0" toLane="2" tl="cluster_1454793147_1494021901_1789730769_255125584_3691148895_8587789980_8883284989_9236077682" linkIndex="5"/>
    <connection from="-525704074#1" to="-525704074#0" fromLane="0" toLane="0" tl="cluster_3743885932_8870249761_9236077698" linkIndex="15"/>
    <connection from="-525704074#1" to="1000601922#24" fromLane="0" toLane="0" tl="cluster_3743885932_8870249761_9236077698" linkIndex="16"/>
    <connection from="-525704074#1" to="-370693008#0" fromLane="0" toLane="0" tl="cluster_3743885932_8870249761_9236077698" linkIndex="17"/>
    <connection from="-525704074#1" to="-1000601922#23" fromLane="0" toLane="0" tl="cluster_3743885932_8870249761_9236077698" linkIndex="18"/>
    <connection from="-525704074#1" to="525704074#1" fromLane="0" toLane="2" tl="cluster_3743885932_8870249761_9236077698" linkIndex="19"/>
    <connection from="-525704074#2" to="-525704074#1" fromLane="0" toLane="0" tl="3691148899" linkIndex="3"/>
    <connection from="-525704074#2" to="525704074#2" fromLane="0" toLane="2" tl="3691148899" linkIndex="4"/>
    <connection from="-525704074#3" to="-525704074#2" fromLane="0" toLane="0" tl="10653188608" linkIndex="3"/>
    <connection from="-525704074#3" to="525704074#3" fromLane="0" toLane="2" tl="10653188608" linkIndex="4"/>
    <connection from="-542757032#1" to="-542757032#0" fromLane="0" toLane="0" tl="1822974752" linkIndex="0"/>
    <connection from="-542757032#1" to="542757032#1" fromLane="0" toLane="2" tl="1822974752" linkIndex="1"/>
    <connection from="-557086948#1" to="-557086948#0" fromLane="0" toLane="0" tl="3691148896" linkIndex="0"/>
    <connection from="-557086948#1" to="557086948#1" fromLane="0" toLane="2" tl="3691148896" linkIndex="1"/>
    <connection from="-557086948#3" to="-557086948#1" fromLane="0" toLane="0" tl="cluster_1068809710_8587790014_8587790015_9871812716" linkIndex="0"/>
    <connection from="-557086948#3" to="-925332116#24" fromLane="0" toLane="0" tl="cluster_1068809710_8587790014_8587790015_9871812716" linkIndex="1"/>
    <connection from="-557086948#3" to="833428766#1" fromLane="0" toLane="1" tl="cluster_1068809710_8587790014_8587790015_9871812716" linkIndex="2"/>
    <connection from="-557086948#3" to="925332116#26" fromLane="0" toLane="0" tl="cluster_1068809710_8587790014_8587790015_9871812716" linkIndex="3"/>
    <connection from="-557086948#3" to="557086948#3" fromLane="0" toLane="2" tl="cluster_1068809710_8587790014_8587790015_9871812716" linkIndex="4"/>
    <connection from="-557086948#4" to="-557086948#3" fromLane="0" toLane="0" tl="cluster_255125780_8587790021" linkIndex="13"/>
    <connection from="-557086948#4" to="-925332116#26" fromLane="0" toLane="0" tl="cluster_255125780_8587790021" linkIndex="14"/>
    <connection from="-557086948#4" to="23560592#1" fromLane="0" toLane="1" tl="cluster_255125780_8587790021" linkIndex="15"/>
    <connection from="-557086948#4" to="925332116#27" fromLane="0" toLane="0" tl="cluster_255125780_8587790021" linkIndex="16"/>
    <connection from="-557086948#4" to="557086948#4" fromLane="0" toLane="2" tl="cluster_255125780_8587790021" linkIndex="17"/>
    <connection from="-692973062" to="-235826551#3" fromLane="0" toLane="0" tl="255124694" linkIndex="0"/>
    <connection from="-692973062" to="235826551#4" fromLane="0" toLane="2" tl="255124694" linkIndex="1"/>
    <connection from="-693467519#0" to="-557086935#4" fromLane="0" toLane="0" tl="cluster_1454793147_1494021901_1789730769_255125584_3691148895_8587789980_8883284989_9236077682" linkIndex="35"/>
    <connection from="-693467519#0" to="1000601922#13" fromLane="0" toLane="0" tl="cluster_1454793147_1494021901_1789730769_255125584_3691148895_8587789980_8883284989_9236077682" linkIndex="36"/>
    <connection from="-693467519#0" to="845996846#3" fromLane="0" toLane="1" tl="cluster_1454793147_1494021901_1789730769_255125584_3691148895_8587789980_8883284989_9236077682" linkIndex="37"/>
    <connection from="-693467519#0" to="203443509" fromLane="0" toLane="0" tl="cluster_1454793147_1494021901_1789730769_255125584_3691148895_8587789980_8883284989_9236077682" linkIndex="38"/>
    <connection from="-693467519#0" to="-1000601922#12" fromLane="0" toLane="0" tl="cluster_1454793147_1494021901_1789730769_255125584_3691148895_8587789980_8883284989_9236077682" linkIndex="39"/>
    <connection from="-693467519#0" to="693467519#0" fromLane="0" toLane="2" tl="cluster_1454793147_1494021901_1789730769_255125584_3691148895_8587789980_8883284989_9236077682" linkIndex="40"/>
    <connection from="-723085254" to="-753866466#5" fromLane="0" toLane="0" tl="cluster_1428008199_255124618_9236077669" linkIndex="17"/>
    <connection from="-723085254" to="1000601922#1" fromLane="0" toLane="0" tl="cluster_1428008199_255124618_9236077669" linkIndex="18"/>
    <connection from="-723085254" to="-426720110#2" fromLane="0" toLane="0" tl="cluster_1428008199_255124618_9236077669" linkIndex="19"/>
    <connection from="-723085254" to="-1000601922#0" fromLane="0" toLane="0" tl="cluster_1428008199_255124618_9236077669" linkIndex="20"/>
    <connection from="-723085254" to="723085254" fromLane="0" toLane="2" tl="cluster_1428008199_255124618_9236077669" linkIndex="21"/>
    <connection from="-735188027#0" to="-542807707" fromLane="0" toLane="0" tl="cluster_3691152249_3787229048_7043417689_7043417690_8587789943" linkIndex="4"/>
    <connection from="-735188027#0" to="753866466#1" fromLane="0" toLane="0" tl="cluster_3691152249_3787229048_7043417689_7043417690_8587789943" linkIndex="5"/>
    <connection from="-735188027#0" to="-723085255#4" fromLane="0" toLane="0" tl="cluster_3691152249_3787229048_7043417689_7043417690_8587789943" linkIndex="6"/>
    <connection from="-735188027#0" to="735188027#0" fromLane="0" toLane="2" tl="cluster_3691152249_3787229048_7043417689_7043417690_8587789943" linkIndex="7"/>
    <connection from="-753866466#1" to="-542807707" fromLane="0" toLane="0" tl="cluster_3691152249_3787229048_7043417689_7043417690_8587789943" linkIndex="30"/>
    <connection from="-753866466#1" to="753866466#1" fromLane="0" toLane="2" tl="cluster_3691152249_3787229048_7043417689_7043417690_8587789943" linkIndex="31"/>
    <connection from="-776140146#0" to="-735188027#2" fromLane="0" toLane="0" tl="1454820073" linkIndex="0"/>
    <connection from="-776140146#0" to="776140146#0" fromLane="0" toLane="2" tl="1454820073" linkIndex="1"/>
    <connection from="-859186438#2" to="-1000601922#9" fromLane="0" toLane="0" tl="cluster_1788428321_3691148910_8008942127_8677984584_9236077679_9887285370" linkIndex="0"/>
    <connection from="-859186438#2" to="936543450" fromLane="0" toLane="0" tl="cluster_1788428321_3691148910_8008942127_8677984584_9236077679_9887285370" linkIndex="1"/>
    <connection from="-859186438#2" to="-693467519#3" fromLane="0" toLane="0" tl="cluster_1788428321_3691148910_8008942127_8677984584_9236077679_9887285370" linkIndex="2"/>
    <connection from="-859186438#2" to="1000601922#10" fromLane="0" toLane="0" tl="cluster_1788428321_3691148910_8008942127_8677984584_9236077679_9887285370" linkIndex="3"/>
    <connection from="-859186438#2" to="859186438#2" fromLane="0" toLane="0" tl="cluster_1788428321_3691148910_8008942127_8677984584_9236077679_9887285370" linkIndex="4"/>
    <connection from="-925332116#13" to="-693467519#3" fromLane="0" toLane="0" tl="cluster_1788428321_3691148910_8008942127_8677984584_9236077679_9887285370" linkIndex="15"/>
    <connection from="-925332116#13" to="1000601922#10" fromLane="0" toLane="0" tl="cluster_1788428321_3691148910_8008942127_8677984584_9236077679_9887285370" linkIndex="16"/>
    <connection from="-925332116#13" to="859186438#2" fromLane="0" toLane="0" tl="cluster_1788428321_3691148910_8008942127_8677984584_9236077679_9887285370" linkIndex="17"/>
    <connection from="-925332116#13" to="-1000601922#9" fromLane="0" toLane="0" tl="cluster_1788428321_3691148910_8008942127_8677984584_9236077679_9887285370" linkIndex="18"/>
    <connection from="-925332116#13" to="936543450" fromLane="0" toLane="1" tl="cluster_1788428321_3691148910_8008942127_8677984584_9236077679_9887285370" linkIndex="19"/>
    <connection from="-925332116#13" to="-665006537" fromLane="0" toLane="0" tl="cluster_1788428321_3691148910_8008942127_8677984584_9236077679_9887285370" linkIndex="20"/>
    <connection from="-925332116#13" to="-925332116#12" fromLane="0" toLane="0" tl="cluster_1788428321_3691148910_8008942127_8677984584_9236077679_9887285370" linkIndex="21"/>
    <connection from="-925332116#13" to="936543449" fromLane="0" toLane="2" tl="cluster_1788428321_3691148910_8008942127_8677984584_9236077679_9887285370" linkIndex="22"/>
    <connection from="-925332116#13" to="925332116#13" fromLane="0" toLane="0" tl="cluster_1788428321_3691148910_8008942127_8677984584_9236077679_9887285370" linkIndex="23"/>
    <connection from="-925332116#16" to="1000601922#13" fromLane="0" toLane="0" tl="cluster_1454793147_1494021901_1789730769_255125584_3691148895_8587789980_8883284989_9236077682" linkIndex="6"/>
    <connection from="-925332116#16" to="845996846#3" fromLane="0" toLane="0" tl="cluster_1454793147_1494021901_1789730769_255125584_3691148895_8587789980_8883284989_9236077682" linkIndex="7"/>
    <connection from="-925332116#16" to="203443509" fromLane="0" toLane="0" tl="cluster_1454793147_1494021901_1789730769_255125584_3691148895_8587789980_8883284989_9236077682" linkIndex="8"/>
    <connection from="-925332116#16" to="-1000601922#12" fromLane="0" toLane="0" tl="cluster_1454793147_1494021901_1789730769_255125584_3691148895_8587789980_8883284989_9236077682" linkIndex="9"/>
    <connection from="-925332116#16" to="-423199936#0" fromLane="0" toLane="0" tl="cluster_1454793147_1494021901_1789730769_255125584_3691148895_8587789980_8883284989_9236077682" linkIndex="10"/>
    <connection from="-925332116#16" to="-925332116#15" fromLane="0" toLane="0" tl="cluster_1454793147_1494021901_1789730769_255125584_3691148895_8587789980_8883284989_9236077682" linkIndex="11"/>