<?xml version="1.0" encoding="iso-8859-1"?>

<configuration xmlns:xsi="http://www.w3.org/2001/XMLSchema-instance" xsi:noNamespaceSchemaLocation="http://sumo.sf.net/xsd/sumoConfiguration.xsd">

    <input>
        <net-file value="vake.net.xml"/>
        <route-files value="vake.busStops.rou.xml,vake.vehicles.rou.xml"/>
        <additional-files value="bus.stops.add.xml"/>
    </input>

    <time>
        <begin value="0"/>
        <end value="30000"/>
    </time>
    
    <processing>
    	<time-to-teleport value="-1"/>
    </processing>
</configuration>
